*
*  **********************************************
*  *             TSMC SPICE MODEL               *
*  **********************************************
*  
*    PROCESS :  0.35um MIXED MODE (2P4M,3.3V/5V) POLYCIDE
*    MODEL   :  BSIM3 ( V3.1 )
*    DOC. NO.:  T-035-MM-SP-002
*    VERSION :  2.3 
*    DATE    :  Oct 25 , 2001
*    HSPICE VERSION : H98.2 & H98.4
*
********************************************************************************
*                                                                             
*       SPICE model release notes for H97.2, H97.4 and H98.2 and H98.4:         
*                                                                         
*                                                                             
* (1) New parameter "CALCACM" is added in the H98.2 & H98.4                    
*                                                                             
*
*     In H97.2 & H97.4, the default values of AS/AD and PS/PD are zero when
* Bsim3v3.1 model with ACM=12 is used. This results in zero junction capacitance
* and incorrect junction leakage current, if AS/AD and PS/PD are not specified
* in the netlist. In H98.2 & H98.4, with CALCACM >0, the default calculation of 
* AS/AD and PS/PD will be calculated using HDIF. When CALCACM=0, the default is 
* zero for AS/AD and PS/PD.
*
* (2) New parameter "VFBFLAG" is added in H98.2 & H98.4
*
*     In H97.2 & H97.4, The capacitance model CAPMOD=0 normally uses a
* threshold voltage defined as Vth = vfbc + phi+ k1 * sqrt(phi - vbs), where
* vfbc is derived from the model parameter VFBCV. In this way, the CV will not
* track with VTH0 for corner simulation. In H98.2 and H98.4, VFBFLAG=1 uses
* Vth=vfb + phi + k1 * sqrt(phi - vbs), where vfb is identical to the  
* flatband voltage used in the drain current calculations. The resultant CV
* simulation will track with change in VTH0, which is more physical for corner
* case simulation. The VFBFLAG default value is zero.
*
* (3) Difference in simulation results for H97.2, H97.4 and H98.2 & H98.4
*
*     With VFBFLAG=1 and CALCACM=1 in H98.2/H98.4, the simulation results based
* on ring oscillator delay indicates that the difference is less than 6% 
* between the ring oscillator speed by using H98.2/H98.4 and that by using 
* H97.2 & H97.4. The discrepancy is mainly due to the effect of VFBFLAG=1. 
* By setting VFBFLAG=0, users would obtain the same results from H97.2, H97.4
* , H98.2 and H98.4.
*
******************************************************************************
******************************************************************************
*                                                                            * 
*       IN THIS MODEL LIB CONTAINS :                                         *  
*                                                                            *
*       1.LIB TT                                                             *
*             SS                                                             *
*             FF                                                             *
*             SF                                                             *
*             FS                                                             *
*        ( 3.3V Normal devices & NMOS with ESD implant with different        *
*          geometric and corner models)                                      *
*                                                                            *
*                                                                            *
*       2.LIB TT_5V                                                          *
*             SS_5V                                                          *
*             FF_5V                                                          *
*             SF_5V                                                          *
*             FS_5V                                                          *
*        ( 5V normal devices & 5V NMOS with ESD implant with different       *
*          geometric and corner models)                                      *
*                                                                            *
*       3.LIB BIP                                                            *
*        ( P+/NW/PSUB 10x10, 5x5 vertical PNP bipolar )                      *
*                                                                            *
*       4.LIB DIO                                                            *
*        ( P+/NW , N+/PW & NW/PSUB diode )                                   *
*                                                                            *
*       5.LIB RES                                                            *
*        ( resistor model )                                                  *                                                                     *                                                                            *
*                                                                            *
******************************************************************************
******************************************************************************
*                                                                            *
* 1)To use these models directly by programming in this style:               *
*                                                                            *
*     .lib 'lib_path/lib_name' model_name                                    *
*                                                                            *
*                                                                            *
*    EX: .lib '/home/user/tsmc/MIXED035/mm0355v.l' TT                        *
*        for typical 3.3V N,PMOS                                             *
*        .lib '/home/user/tsmc/MIXED035/mm0355v.l' TT_5V                     *
*        for typical 5V N,PMOS                                               *
*  note:                                                                     *
*      corner_name                                                           *
*       TT : typical model for 3.3V devices                                  *
*       SS : Slow NMOS Slow PMOS model for 3.3V devices                      *
*       FF : Fast NMOS Fast PMOS model for 3.3V devices                      *
*       SF : Slow NMOS Fast PMOS model for 3.3V devices                      *
*       FS : Fast NMOS Slow PMOS model for 3.3V devices                      *
*                                                                            *
*       TT_5V : typical model for 5V devices                                 *
*       SS_5V : Slow NMOS Slow PMOS model for 5V devices                     *
*       FF_5V : Fast NMOS Fast PMOS model for 5V devices                     *
*       SF_5V : Slow NMOS Fast PMOS model for 5V devices                     *
*       FS_5V : Fast NMOS Slow PMOS model for 5V devices                     *
*                                                                            *
* 2)HDIF depends on your layout poly spacer to contact center distance.      *
*   The value listed here is TSMC minimum-rule value. You can change it      *
*   according to your layout.                                                *
*                                                                            *
******************************************************************************
***************************************************************
*                                                             *
*                3.3V NORMAL DEVICES LIB                      *
*                                                             *
***************************************************************
***************** CORNER_LIB OF TYPICAL MODEL ****************************
.LIB TT
.param toxn  = 7.5e-9 toxp  = 7.7e-9   toxe = 7.5E-09
+dxl  = 0 dxw  = 0
+dvtn  = 0 dvtp  = 0  delvtoe= 0
+cjn  = 9.50957e-4 cjp  =  1.38871E-3  cje = 0.00101893
+cjswn  = 2.84489e-10 cjswp  = 3.86159e-10  cjswe  = 3.057956E-10
+cgon  = 2.063e-10 cgop  = 1.83e-10  cgoe = 1.96000e-10
+cjswgn  = 1.816514e-10 cjswgp  = 4.415421e-11  cjswge = 1.524314E-10
+hdifn  = 3.65E-07 hdifp  = 3.65E-07  hdife = 1.08E-06
.lib 'mm0355v.l' MOS
.ENDL TT
**************** CORNER_LIB OF  SNSP   MODEL ****************************
.LIB SS
.param toxn  = 8.0e-9 toxp  = 8.2e-9   toxe = 8E-09
+dxl  = 4e-8 dxw  = -6e-8
+dvtn  = 0.1 dvtp  = -0.1  delvtoe= 0.1
+cjn  = 1.0460527e-3 cjp  = 1.527581e-3 cje = 0.001120823
+cjswn  = 3.129379e-10 cjswp  = 4.247749e-10  cjswe = 3.363752E-10
+cgon  = 2.2693e-10 cgop  = 2.013e-10  cgoe = 2.156E-10
+cjswgn  = 1.9981654e-10 cjswgp  = 4.8569631e-11 cjswge = 1.676745E-10
+hdifn  = 3.65E-07 hdifp  = 3.65E-07  hdife  = 1.08E-06
.lib 'mm0355v.l' MOS
.ENDL SS
**************** CORNER_LIB OF  FNFP   MODEL ****************************
.LIB FF
.param toxn  = 7.0e-9 toxp  = 7.2e-9  toxe = 7E-09
+dxl  = -4e-8 dxw  = 6e-8  
+dvtn  = -0.1 dvtp  = 0.1  delvtoe= -0.1
+cjn  = 8.558613e-4 cjp  = 1.249839e-3  cje = 0.000917037
+cjswn  = 2.560401e-10 cjswp  = 3.475431e-10  cjswe = 2.75216E-10
+cgon  = 1.8567e-10 cgop  = 1.647e-10  cgoe = 1.764E-10
+cjswgn  = 1.6348626e-10 cjswgp  = 3.9738739e-11  cjswge = 1.371883E-10
+hdifn  = 3.65E-07 hdifp  = 3.65E-07  hdife = 1.08E-06
.lib 'mm0355v.l' MOS
.ENDL FF
**************** CORNER_LIB OF  SNFP   MODEL ****************************
.LIB SF
.param toxn  = 7.5e-9 toxp  = 7.7e-9  toxe = 7.5E-09
+dxl  = 0 dxw  = 0  
+dvtn  = 0.1 dvtp  = 0.1  delvtoe= 0.1
+cjn  = 1.0460527e-3 cjp  = 1.249839e-3   cje = 0.001120823
+cjswn  = 3.129379e-10 cjswp  = 3.475431e-10  cjswe = 3.363752E-10  
+cgon  = 2.063e-10 cgop  = 1.83e-10  cgoe = 1.96000e-10
+cjswgn  = 1.9981654e-10 cjswgp  = 3.9738739e-11  cjswge = 1.676745E-10
+hdifn  = 3.65E-07 hdifp  = 3.65E-07  hdife = 1.08E-06
.lib 'mm0355v.l' MOS
.ENDL SF
**************** CORNER_LIB OF  FNSP   MODEL ****************************
.LIB FS
.param toxn  = 7.5e-9 toxp  = 7.7e-9  toxe = 7.5E-09
+dxl  = 0 dxw  = 0
+dvtn  = -0.1 dvtp  = -0.1  delvtoe= -0.1
+cjn  = 8.558613e-4 cjp  = 1.527581e-3  cje = 0.000917037
+cjswn  = 2.560401e-10 cjswp  = 4.247749e-10  cjswe = 2.75216E-10
+cgon  = 2.063e-10 cgop  = 1.83e-10   cgoe = 1.96000e-10
+cjswgn  = 1.6348626e-10 cjswgp  = 4.8569631e-11  cjswge = 1.371883E-10
+hdifn  = 3.65E-07 hdifp  = 3.65E-07  hdife = 1.08E-06
.lib 'mm0355v.l' MOS
.ENDL FS
*
***************************************************************
*                                                             *
*                  5V NORMAL DEVICES LIB                      *
*                                                             *
***************************************************************
***************** CORNER_LIB OF TYPICAL MODEL ****************************
.LIB TT_5V 
.param toxn5 = 1.46e-8 toxp5 = 1.48e-8  toxe5 = 1.46E-08
+dxl5 = 0 dxw5 = 0 
+dvtn5 = 0 dvtp5 = 0  dvte5 = 0
+cjn5 = 9.97124e-4   cjp5 = 1.385012e-3  cje5 = 8.250009e-4
+cjswn5 = 2.68215e-10  cjswp5 = 3.68278e-10  cjswe5 = 6.894958e-10
+cgon5 = 1.6463e-10   cgop5 = 1.714154e-10  cgoe5 = 2.74000e-10
+cjswgn5 = 1.844056e-10  cjswgp5 = 6.89655e-11  cjswge5 = 5.323704e-10
+hdifn5 = 3.65E-07    hdifp5 = 3.65E-07  hdife5 = 3.8e-07
.lib 'mm0355v.l' MOS_5V 
.ENDL TT_5V 
**************** CORNER_LIB OF  SNSP   MODEL **************************** 
.LIB SS_5V 
.param toxn5 = 1.56e-8 toxp5 = 1.58e-8  toxe5 = 1.56e-08
+dxl5 = 4e-8 dxw5 = -6e-8 
+dvtn5 = 0.1 dvtp5 = -0.15  dvte5 = 0.1
+cjn5 = 1.0968e-3   cjp5 = 1.5235132e-3  cje5 = 9.075010e-4
+cjswn5 = 2.950365E-10   cjswp5 = 4.051058e-10  cjswe5 = 7.584454e-10
+cgon5 = 1.811e-10    cgop5 = 1.8855694e-10  cgoe5 = 3.014000e-10
+cjswgn5 = 2.0284616e-10  cjswgp5 = 7.586205e-11  cjswge5 = 5.856075e-10
+hdifn5 = 3.65E-07    hdifp5 = 3.65E-07  hdife5 = 3.8e-7
.lib 'mm0355v.l' MOS_5V 
.ENDL SS_5V                               
**************** CORNER_LIB OF  FNFP   MODEL **************************** 
.LIB FF_5V 
.param toxn5 = 1.36e-8 toxp5 = 1.38e-8  toxe5 = 1.36e-8
+dxl5 = -4e-8 dxw5 = 6e-8 
+dvtn5 = -0.1 dvtp5 = 0.15  dvte5 = -0.1
+cjn5 = 8.974116e-4   cjp5 = 1.2465108e-3  cje5 = 7.425008e-4
+cjswn5 = 2.413539e-10   cjswp5 = 3.314502e-10  cjswe5 = 6.205462e-10
+cgon5 = 1.48167e-10   cgop5 = 1.5427386e-10  cgoe5 = 2.466000e-10
+cjswgn5 = 1.65965e-10  cjswgp5 = 6.206895e-11  cjswge5 = 4.791334e-10
+hdifn5 = 3.65E-07    hdifp5 = 3.65E-07  hdife5 = 3.8e-7
.lib 'mm0355v.l' MOS_5V 
.ENDL FF_5V 
**************** CORNER_LIB OF  SNFP   MODEL **************************** 
.LIB SF_5V 
.param toxn5 = 1.46e-8 toxp5 = 1.48e-8  toxe5 = 1.46e-8
+dxl5 = 0 dxw5 = 0 
+dvtn5 = 0.1 dvtp5 = 0.15  dvte5 = 0.1
+cjn5 = 1.0968e-3   cjp5 = 1.2465108e-3  cje5 = 9.075010e-4
+cjswn5 = 2.950365E-10   cjswp5 = 3.314502e-10  cjswe5 = 7.584454e-10
+cgon5 = 1.6463e-10    cgop5 = 1.714154e-10  cgoe5 = 2.7400e-10
+cjswgn5 = 2.0284616e-10  cjswgp5 = 6.206895e-11  cjswge5 = 5.856075e-10
+hdifn5 = 3.65E-07    hdifp5 = 3.65E-07   hdife5 = 3.8e-7
.lib 'mm0355v.l' MOS_5V 
.ENDL SF_5V 
**************** CORNER_LIB OF  FNSP   MODEL **************************** 
.LIB FS_5V 
.param toxn5 = 1.46e-8 toxp5 = 1.48e-8  toxe5 = 1.46e-8
+dxl5 = 0 dxw5 = 0 
+dvtn5 = -0.1 dvtp5 = -0.15  dvte5 = -0.1
+cjn5 = 8.974116e-4   cjp5 = 1.5235132e-3  cje5 = 7.425008e-4
+cjswn5 = 2.413539e-10   cjswp5 = 4.051058e-10  cjswe5 = 6.205462e-10
+cgon5 = 1.6463e-10    cgop5 = 1.714154e-10  cgoe5 = 2.7400e-10
+cjswgn5 = 1.65965e-10  cjswgp5 = 7.586205e-11  cjswge5 = 4.791334e-10
+hdifn5 = 3.65E-07    hdifp5 = 3.65E-07  hdife5 = 3.8e-7
.lib 'mm0355v.l' MOS_5V 
.ENDL FS_5V 
*
**************************************************************************
*
***************************************************************
*                                                             *
*                                                             *
*               3.3V NORMAL DEVICES MODEL                     *
*                                                             *
*                                                             *
*                                                             *
***************************************************************
*   
.LIB MOS
*
***************************************************************
*                                                             *
*               3.3V NMOS DEVICES MODEL                       *
*                                                             *
***************************************************************
.MODEL nch.1             NMOS   (                    LMIN    = '1.207E-06-dxl' 
+LMAX    = 2.01E-05        WMIN    = '1.183E-06-dxw' WMAX    = '1.9983E-5-dxw' 
+LEVEL   = 49              TNOM    = 25              VERSION = 3.1             
+ACM     = 12              LDIF    = 1.2E-07         HDIF    = hdifn           
+RSH     = 82.2            RD      = 0               RS      = 0               
+TOX     = toxn            XJ      = 1E-07           NCH     = 2.3579E+17      
+LLN     = 1               LWN     = 1               WLN     = 1               
+WWN     = 1               LINT    = 4E-08           LL      = 0               
+LW      = 0               LWL     = 0               WINT    = 4E-08           
+WL      = 0               WW      = 0               WWL     = 0               
+MOBMOD  = 1               BINUNIT = 2               XL      = '3E-08+dxl'     
+XW      = '1.5E-07+dxw'   DWG     = 0               DWB     = 0               
+VTH0    = 'dvtn+0.536027' LVTH0   = 3.726466E-08    WVTH0   = -2.1316E-08     
+PVTH0   = -2.460013E-14   K1      = 0.5246611       LK1     = -1.639613E-08   
+WK1     = -5.031044E-08   PK1     = 2.211867E-14    K2      = 0.02709882      
+LK2     = -6.586022E-09   WK2     = 5.785586E-09    PK2     = 3.435911E-15    
+K3      = 0               DVT0    = 0               DVT1    = 0               
+DVT2    = 0               DVT0W   = 0               DVT1W   = 0               
+DVT2W   = 0               NLX     = 0               W0      = 0               
+K3B     = 0               VSAT    = 95850.88        LVSAT   = 0.01310061      
+WVSAT   = 0.0008223997    PVSAT   = -1.641506E-08   UA      = 3.196265E-11    
+LUA     = -3.698079E-17   WUA     = -6.408507E-16   PUA     = 7.414642E-22    
+UB      = 2.045354E-18    LUB     = 6.227287E-25    WUB     = 5.533028E-26    
+PUB     = -1.805726E-30   UC      = 6.725734E-11    LUC     = 1.901776E-17    
+WUC     = -3.996494E-17   PUC     = -3.876839E-23   RDSW    = 750             
+PRWB    = 0               PRWG    = 0               WR      = 1               
+U0      = 0.04660162      LU0     = 5.515446E-09    WU0     = -1.626703E-08   
+PU0     = -4.134264E-15   A0      = 0.5017616       LA0     = 5.552729E-07    
+WA0     = 6.615518E-07    PA0     = -5.219843E-13   KETA    = -0.008348037    
+LKETA   = 2.403177E-08    WKETA   = 2.44925E-08     PKETA   = -3.102829E-14   
+A1      = 0               A2      = 0.99            AGS     = 0.09736285      
+LAGS    = 1.223815E-07    WAGS    = 1.607973E-07    PAGS    = -4.561918E-14   
+B0      = 0               B1      = 0               VOFF    = -0.1432202      
+LVOFF   = 3.766451E-08    WVOFF   = 2.755289E-08    PVOFF   = -1.641511E-14   
+NFACTOR = 1.071551        LNFACTOR= -3.18949E-07    WNFACTOR= -3.166332E-07   
+PNFACTOR= 4.241266E-13    CIT     = -7.628655E-05   LCIT    = 2.723331E-10    
+WCIT    = 4.660042E-10    PCIT    = -4.03804E-16    CDSC    = 0               
+CDSCB   = 0               CDSCD   = 0               ETA0    = 0.0002181413    
+LETA0   = 4.893156E-10    WETA0   = -2.201543E-10   PETA0   = 3.379313E-16    
+ETAB    = 1.65427E-05     LETAB   = -1.913991E-11   WETAB   = -2.072801E-11   
+PETAB   = 2.39823E-17     DSUB    = 0               PCLM    = 0.1632291       
+LPCLM   = 7.33948E-07     WPCLM   = 7.523777E-09    PPCLM   = -1.501737E-13   
+PDIBLC1 = 1E-05           PDIBLC2 = -0.0001189527   LPDIBLC2= 3.04769E-09     
+WPDIBLC2= 7.281391E-12    PPDIBLC2= -5.988417E-16   PDIBLCB = 0.138753        
+DROUT   = 0               PSCBE1  = 4.710076E+08    LPSCBE1 = -47.68667       
+WPSCBE1 = -72.788         PPSCBE1 = -1.725277E-05   PSCBE2  = 0.0001510638    
+LPSCBE2 = -1.69574E-10    WPSCBE2 = -1.390941E-10   PPSCBE2 = 1.578688E-16    
+PVAG    = 0               DELTA   = 0.01            ALPHA0  = 2.5E-06        
+BETA0   = 20.7            KT1     = -0.2700492      LKT1    = -3.095004E-08   
+WKT1    = 2.812907E-08    PKT1    = 7.879249E-14    KT2     = -0.04153765     
+LKT2    = 2.524311E-08    WKT2    = 2.833375E-08    PKT2    = -1.608147E-14   
+AT      = 2219.528        LAT     = -0.02686487     WAT     = -0.002395568    
+PAT     = 2.596705E-08    UTE     = -2.065168       LUTE    = -4.132515E-07   
+WUTE    = 4.668071E-07    PUTE    = 3.33133E-13     UA1     = 1.422613E-10    
+LUA1    = -1.44336E-15    WUA1    = 9.693937E-16    PUA1    = 1.598886E-22    
+UB1     = -2.172033E-18   LUB1    = 1.404262E-24    WUB1    = 5.546184E-26    
+PUB1    = 6.856764E-31    UC1     = -5.716306E-11   LUC1    = 5.31648E-17     
+WUC1    = -2.396283E-17   PUC1    = -2.142338E-24   KT1L    = 0               
+PRT     = 24.11496        LPRT    = -1.086812E-05   WPRT    = -0.000500091    
+PPRT    = 1.361775E-11    
+CJ      = cjn            CJSW     = cjswn          CJSWG    = cjswgn 
+MJ      = 0.3297355      MJSW     = 0.1303453      MJSWG    = 0.1303453
+PB      = 0.6944804      PBSW     = 0.6944804      PBSWG    = 0.6944804
+CTA     = 9.42521E-4     CTP      = 4.91382E-04    PTA      = 1.485657E-03
+PTP     = 1.485657E-03   CGDO     = cgon           CGSO     = cgon
+XTI     = 3              N        = 1              CAPMOD   = 0
+NQSMOD  = 0              XPART    = 1              CF       = 0 
+CALCACM = 1              SFVTFLAG = 0              VFBFLAG  = 1       
+NLEV    = 3              AF       = 0.85           KF       = 1.0E-24
+JS      = 6.27496E-05    JSW      = 5.79847E-10          )
*
*
.MODEL nch.2             NMOS   (                    LMIN    = '8.07E-07-dxl'  
+LMAX    = '1.207E-06-dxl' WMIN    = '1.183E-06-dxw' WMAX    = '1.9983E-5-dxw' 
+LEVEL   = 49              TNOM    = 25              VERSION = 3.1             
+ACM     = 12              LDIF    = 1.2E-07         HDIF    = hdifn           
+RSH     = 82.2            RD      = 0               RS      = 0               
+TOX     = toxn            XJ      = 1E-07           NCH     = 2.3579E+17      
+LLN     = 1               LWN     = 1               WLN     = 1               
+WWN     = 1               LINT    = 4E-08           LL      = 0               
+LW      = 0               LWL     = 0               WINT    = 4E-08           
+WL      = 0               WW      = 0               WWL     = 0               
+MOBMOD  = 1               BINUNIT = 2               XL      = '3E-08+dxl'     
+XW      = '1.5E-07+dxw'   DWG     = 0               DWB     = 0               
+VTH0    = 'dvtn+0.546655' LVTH0   = 2.496758E-08    WVTH0   = -4.998887E-08   
+PVTH0   = 8.574382E-15    K1      = 0.4989724       LK1     = 1.332564E-08    
+WK1     = -1.063668E-07   PK1     = 8.697584E-14    K2      = 0.02537151      
+LK2     = -4.587532E-09   WK2     = 1.546677E-08    PK2     = -7.765214E-15   
+K3      = 0               DVT0    = 0               DVT1    = 0               
+DVT2    = 0               DVT0W   = 0               DVT1W   = 0               
+DVT2W   = 0               NLX     = 0               W0      = 0               
+K3B     = 0               VSAT    = 129157.8        LVSAT   = -0.02543551     
+WVSAT   = -0.07469934     PVSAT   = 7.096359E-08    UA      = 0               
+UB      = 3.817944E-18    LUB     = -1.428159E-24   WUB     = -3.001886E-24   
+PUB     = 1.731473E-30    UC      = 1.288592E-10    LUC     = -5.225554E-17   
+WUC     = -1.385508E-16   PUC     = 7.529545E-23    RDSW    = 750             
+PRWB    = 0               PRWG    = 0               WR      = 1               
+U0      = 0.05813805      LU0     = -7.83221E-09    WU0     = -2.807534E-08   
+PU0     = 9.527953E-15    A0      = 1.417374        LA0     = -5.040912E-07   
+WA0     = 4.499891E-07    PA0     = -2.772062E-13   KETA    = 0.02457614      
+LKETA   = -1.40615E-08    WKETA   = -1.016334E-08   PKETA   = 9.068513E-15    
+A1      = 0               A2      = 0.99            AGS     = 0.5850528       
+LAGS    = -4.418758E-07   WAGS    = 4.016458E-07    PAGS    = -3.242809E-13   
+B0      = 0               B1      = 0               VOFF    = -0.1838075      
+LVOFF   = 8.462402E-08    WVOFF   = 1.050108E-07    PVOFF   = -1.060339E-13   
+NFACTOR = -0.0335216      LNFACTOR= 9.596193E-07    WNFACTOR= 1.057246E-06    
+PNFACTOR= -1.165451E-12   CIT     = 0.0004911736    LCIT    = -3.842184E-10   
+WCIT    = -3.289006E-10   PCIT    = 5.159007E-16    CDSC    = 0               
+CDSCB   = 0               CDSCD   = 0               ETA0    = 0.0001221602    
+LETA0   = 6.003658E-10    WETA0   = 9.98899E-10     PETA0   = -1.072513E-15   
+ETAB    = -6.307671E-06   LETAB   = 7.29797E-12     WETAB   = 1.264687E-10    
+PETAB   = -1.463242E-16   DSUB    = 0               PCLM    = 0.7657633       
+LPCLM   = 3.681587E-08    WPCLM   = -3.195318E-07   PPCLM   = 2.282295E-13    
+PDIBLC1 = 1E-05           PDIBLC2 = -0.001092725    LPDIBLC2= 4.174345E-09    
+WPDIBLC2= -5.786619E-10   PPDIBLC2= 7.909472E-17    PDIBLCB = -0.1138522      
+LPDIBLCB= 2.922645E-07    WPDIBLCB= 3.165146E-07    PPDIBLCB= -3.662074E-13   
+DROUT   = 0               PSCBE1  = 4.682528E+08    LPSCBE1 = -44.49948       
+WPSCBE1 = -209.8855       PPSCBE1 = 0.0001413691    PSCBE2  = 3.714287E-06    
+LPSCBE2 = 9.093489E-13    WPSCBE2 = -8.065528E-13   PPSCBE2 = -2.129907E-18   
+PVAG    = 0               DELTA   = 0.01            ALPHA0  = 2.5E-06      
+BETA0   = 20.7            KT1     = -0.2160808      LKT1    = -9.339147E-08   
+WKT1    = 3.355112E-08    PKT1    = 7.251917E-14    KT2     = -0.01143072     
+LKT2    = -9.590603E-09   WKT2    = 2.278139E-08    PKT2    = -9.657396E-15   
+AT      = -66481.34       LAT     = 0.05262202      WAT     = 0.09716874      
+PAT     = -8.922884E-08   UTE     = -2.188333       LUTE    = -2.707498E-07   
+WUTE    = 5.839889E-08    PUTE    = 8.056612E-13    UA1     = 4.797778E-10    
+LUA1    = -1.833867E-15   WUA1    = -9.438131E-16   PUA1    = 2.373469E-21    
+UB1     = -3.79573E-18    LUB1    = 3.282878E-24    WUB1    = 4.301764E-24    
+PUB1    = -4.227295E-30   UC1     = -3.774725E-11   LUC1    = 3.07007E-17     
+WUC1    = 3.189914E-17    PUC1    = -6.677463E-23   KT1L    = 0               
+PRT     = 46.58106        LPRT    = -3.686147E-05   WPRT    = -0.001359025    
+PPRT    = 1.007405E-09 
+CJ      = cjn            CJSW     = cjswn          CJSWG    = cjswgn 
+MJ      = 0.3297355      MJSW     = 0.1303453      MJSWG    = 0.1303453
+PB      = 0.6944804      PBSW     = 0.6944804      PBSWG    = 0.6944804
+CTA     = 9.42521E-4     CTP      = 4.91382E-04    PTA      = 1.485657E-03
+PTP     = 1.485657E-03   CGDO     = cgon           CGSO     = cgon
+XTI     = 3              N        = 1              CAPMOD   = 0
+NQSMOD  = 0              XPART    = 1              CF       = 0 
+CALCACM = 1              SFVTFLAG = 0              VFBFLAG  = 1       
+NLEV    = 3              AF       = 0.85           KF       = 1.0E-24
+JS      = 6.27496E-05    JSW      = 5.79847E-10          )    
*
*
.MODEL nch.3             NMOS   (                    LMIN    = 3.5E-07         
+LMAX    = '8.07E-07-dxl'  WMIN    = '1.183E-06-dxw' WMAX    = '1.9983E-5-dxw' 
+LEVEL   = 49              TNOM    = 25              VERSION = 3.1             
+ACM     = 12              LDIF    = 1.2E-07         HDIF    = hdifn           
+RSH     = 82.2            RD      = 0               RS      = 0               
+TOX     = toxn            XJ      = 1E-07           NCH     = 2.3579E+17      
+LLN     = 1               LWN     = 1               WLN     = 1               
+WWN     = 1               LINT    = 4E-08           LL      = 0               
+LW      = 0               LWL     = 0               WINT    = 4E-08           
+WL      = 0               WW      = 0               WWL     = 0               
+MOBMOD  = 1               BINUNIT = 2               XL      = '3E-08+dxl'     
+XW      = '1.5E-07+dxw'   DWG     = 0               DWB     = 0               
+VTH0    = 'dvtn+0.582913' LVTH0   = -2.479376E-09   WVTH0   = -6.03258E-08    
+PVTH0   = 1.639944E-14    K1      = 0.4858325       LK1     = 2.327254E-08    
+WK1     = 6.104411E-08    PK1     = -3.97542E-14    K2      = 0.04534535      
+LK2     = -1.970772E-08   WK2     = -1.945053E-09   PK2     = 5.415533E-15    
+K3      = 0               DVT0    = 0               DVT1    = 0               
+DVT2    = 0               DVT0W   = 0               DVT1W   = 0               
+DVT2W   = 0               NLX     = 0               W0      = 0               
+K3B     = 0               VSAT    = 95126.3         LVSAT   = 0.0003263514    
+WVSAT   = 0.0276876       PVSAT   = -6.543329E-09   UA      = 0               
+UB      = 2.104607E-18    LUB     = -1.31162E-25    WUB     = -5.904336E-25   
+PUB     = -9.399655E-32   UC      = 6.617273E-11    LUC     = -4.801916E-18   
+WUC     = -4.640422E-17   PUC     = 5.540488E-24    RDSW    = 750             
+PRWB    = 0               PRWG    = 0               WR      = 1               
+U0      = 0.04861747      LU0     = -6.251291E-10   WU0     = -1.520027E-08   
+PU0     = -2.184713E-16   A0      = 0.7344329       LA0     = 1.289558E-08    
+WA0     = -2.513495E-07   PA0     = 2.537071E-13    KETA    = 0.01065971      
+LKETA   = -3.526753E-09   WKETA   = -3.419267E-08   PKETA   = 2.725872E-14    
+A1      = 0               A2      = 0.99            AGS     = 0.2223535       
+LAGS    = -1.673124E-07   WAGS    = -3.122171E-07   PAGS    = 2.161134E-13    
+B0      = 0               B1      = 0               VOFF    = -0.0716667      
+LVOFF   = -2.66569E-10    WVOFF   = -6.081282E-08   PVOFF   = 1.949458E-14    
+NFACTOR = 1.373063        LNFACTOR= -1.051655E-07   WNFACTOR= -4.708978E-07   
+PNFACTOR= -8.646475E-15   CIT     = -9.014477E-05   LCIT    = 5.583969E-11    
+WCIT    = 2.859396E-10    PCIT    = 5.046674E-17    CDSC    = 0               
+CDSCB   = 0               CDSCD   = 0               ETA0    = -0.0003508224   
+LETA0   = 9.584137E-10    WETA0   = -1.229799E-09   PETA0   = 6.146112E-16    
+ETAB    = 0.001435363     LETAB   = -1.084047E-09   WETAB   = -1.334921E-09   
+PETAB   = 9.599482E-16    DSUB    = 0               PCLM    = 0.7913016       
+LPCLM   = 1.748337E-08    WPCLM   = -2.414444E-08   PPCLM   = 4.621286E-15    
+PDIBLC1 = 1E-05           PDIBLC2 = 0.0001653532    LPDIBLC2= 3.22198E-09     
+WPDIBLC2= -3.987821E-11   PPDIBLC2= -3.287649E-16   PDIBLCB = 0.3624882       
+LPDIBLCB= -6.83252E-08    WPDIBLCB= -1.827158E-07   PPDIBLCB= 1.171009E-14    
+DROUT   = 0               PSCBE1  = 3.496792E+08    LPSCBE1 = 45.26074        
+WPSCBE1 = -43.00555       PPSCBE1 = 1.504091E-05    PSCBE2  = 4.060865E-06    
+LPSCBE2 = 6.469898E-13    WPSCBE2 = -5.382114E-12   PPSCBE2 = 1.333792E-18    
+PVAG    = 0               DELTA   = 0.01            ALPHA0  = 2.5E-06  
+BETA0   = 20.7            KT1     = -0.4001584      LKT1    = 4.595524E-08    
+WKT1    = 2.659199E-07    PKT1    = -1.03384E-13    KT2     = -0.03018077     
+LKT2    = 4.603183E-09    WKT2    = 1.978027E-08    PKT2    = -7.385543E-15   
+AT      = -1454.14        LAT     = 0.003396435     WAT     = -0.01336298     
+PAT     = -5.556333E-09   UTE     = -2.743312       LUTE    = 1.493698E-07    
+WUTE    = 1.759122E-06    PUTE    = -4.817859E-13   UA1     = -2.551773E-09   
+LUA1    = 4.610171E-16    WUA1    = 5.268021E-15    PUA1    = -2.32889E-21    
+UB1     = 1.096567E-18    LUB1    = -4.205904E-25   WUB1    = -6.127881E-24   
+PUB1    = 3.667946E-30    UC1     = 1.205581E-11    LUC1    = -7.000217E-18   
+WUC1    = -1.569118E-16   PUC1    = 7.615527E-23    KT1L    = 0               
+PRT     = 0.2675717       LPRT    = -1.802119E-06   WPRT    = 8.331496E-06    
+PPRT    = -2.768447E-11  
+CJ      = cjn            CJSW     = cjswn          CJSWG    = cjswgn 
+MJ      = 0.3297355      MJSW     = 0.1303453      MJSWG    = 0.1303453
+PB      = 0.6944804      PBSW     = 0.6944804      PBSWG    = 0.6944804
+CTA     = 9.42521E-4     CTP      = 4.91382E-04    PTA      = 1.485657E-03
+PTP     = 1.485657E-03   CGDO     = cgon           CGSO     = cgon
+XTI     = 3              N        = 1              CAPMOD   = 0
+NQSMOD  = 0              XPART    = 1              CF       = 0 
+CALCACM = 1              SFVTFLAG = 0              VFBFLAG  = 1       
+NLEV    = 3              AF       = 0.85           KF       = 1.0E-24
+JS      = 6.27496E-05    JSW      = 5.79847E-10          ) 
*
*
.MODEL nch.4             NMOS   (                    LMIN    = '1.207E-06-dxl' 
+LMAX    = 2.01E-05        WMIN    = '7.83E-07-dxw'  WMAX    = '1.183E-06-dxw' 
+LEVEL   = 49              TNOM    = 25              VERSION = 3.1             
+ACM     = 12              LDIF    = 1.2E-07         HDIF    = hdifn           
+RSH     = 82.2            RD      = 0               RS      = 0               
+TOX     = toxn            XJ      = 1E-07           NCH     = 2.3579E+17      
+LLN     = 1               LWN     = 1               WLN     = 1               
+WWN     = 1               LINT    = 4E-08           LL      = 0               
+LW      = 0               LWL     = 0               WINT    = 4E-08           
+WL      = 0               WW      = 0               WWL     = 0               
+MOBMOD  = 1               BINUNIT = 2               XL      = '3E-08+dxl'     
+XW      = '1.5E-07+dxw'   DWG     = 0               DWB     = 0               
+VTH0    = 'dvtn+0.528243' LVTH0   = 1.080427E-08    WVTH0   = -1.156297E-08   
+PVTH0   = 8.55473E-15     K1      = 0.4545522       LK1     = 3.322464E-08    
+WK1     = 3.753591E-08    PK1     = -4.005616E-14   K2      = 0.02647978      
+LK2     = 7.992918E-09    WK2     = 6.561244E-09    PK2     = -1.48315E-14    
+K3      = 0               DVT0    = 0               DVT1    = 0               
+DVT2    = 0               DVT0W   = 0               DVT1W   = 0               
+DVT2W   = 0               NLX     = 0               W0      = 0               
+K3B     = 0               VSAT    = 96507.23        UA      = -7.217974E-10   
+LUA     = 8.351195E-16    WUA     = 3.036106E-16    PUA     = -3.512775E-22   
+UB      = 2.902607E-18    LUB     = -1.401372E-24   WUB     = -1.018808E-24   
+PUB     = 7.304723E-31    UC      = 7.178552E-11    LUC     = -2.088186E-17   
+WUC     = -4.563875E-17   PUC     = 1.122583E-23    RDSW    = 750             
+PRWB    = 0               PRWG    = 0               WR      = 1               
+U0      = 0.03723282      LU0     = -2.798723E-09   WU0     = -4.527918E-09   
+PU0     = 6.28339E-15     A0      = 1.848904        LA0     = -5.194055E-07   
+WA0     = -1.026417E-06   PA0     = 8.245877E-13    KETA    = 0.01166675      
+LKETA   = -2.805299E-09   WKETA   = -5.86025E-10    PKETA   = 2.598561E-15    
+A1      = 0               A2      = 0.99            AGS     = 0.7010739       
+LAGS    = -4.640424E-07   WAGS    = -5.956526E-07   PAGS    = 6.8917E-13      
+B0      = 0               B1      = 0               VOFF    = -0.1212307      
+LVOFF   = 2.456386E-08    NFACTOR = 0.8705778       LNFACTOR= -1.828959E-08   
+WNFACTOR= -6.481431E-08   PNFACTOR= 4.740038E-14    CIT     = 0.0002549786    
+LCIT    = -4.391399E-11   WCIT    = 5.092893E-11    PCIT    = -7.546486E-18   
+CDSC    = 0               CDSCB   = 0               CDSCD   = 0               
+ETA0    = -8.412339E-05   LETA0   = 1.002234E-09    WETA0   = 1.585833E-10    
+PETA0   = -3.047557E-16   ETAB    = -3.010733E-05   LETAB   = 1.752946E-10    
+WETAB   = 3.772446E-11    PETAB   = -2.19644E-16    DSUB    = 0               
+PCLM    = 0.1692336       LPCLM   = 6.140966E-07    PDIBLC1 = 1E-05           
+PDIBLC2 = -0.000347682    LPDIBLC2= 1.437708E-09    WPDIBLC2= 2.938791E-10    
+PPDIBLC2= 1.418466E-15    PDIBLCB = 0.1387533       DROUT   = 0               
+PSCBE1  = 3.519534E+08    LPSCBE1 = -125.1231       WPSCBE1 = 76.38679        
+PPSCBE1 = 7.977505E-05    PSCBE2  = -8.737216E-05   LPSCBE2 = 9.863835E-11    
+WPSCBE2 = 1.596661E-10    PPSCBE2 = -1.782013E-16   PVAG    = 0               
+DELTA   = 0.01            ALPHA0  = 2.5E-06         BETA0   = 20.7            
+KT1     = -0.1499315      LKT1    = -2.115566E-09   WKT1    = -1.223785E-07   
+PKT1    = 4.266289E-14    KT2     = -0.02087417     LKT2    = 5.041189E-08    
+WKT2    = 2.442399E-09    PKT2    = -4.761794E-14   AT      = -21673.44       
+LAT     = 0.006954652     WAT     = 0.02754232      PAT     = -1.640881E-08   
+UTE     = -2.565965       LUTE    = 5.17659E-07     WUTE    = 1.094306E-06    
+PUTE    = -8.332978E-13   UA1     = -1.6811E-09     LUA1    = 1.19284E-15     
+WUA1    = 3.254065E-15    PUA1    = -3.143271E-21   UB1     = -1.065109E-18   
+LUB1    = -2.464934E-25   WUB1    = -1.331515E-24   PUB1    = 2.754072E-30    
+UC1     = -8.220291E-11   LUC1    = -3.608129E-17   WUC1    = 7.412109E-18    
+PUC1    = 1.09683E-22     KT1L    = 0               PRT     = -1223.895       
+LPRT    = 0.0009821714    WPRT    = 0.001063665     PPRT    = -1.230661E-09
+CJ      = cjn            CJSW     = cjswn          CJSWG    = cjswgn 
+MJ      = 0.3297355      MJSW     = 0.1303453      MJSWG    = 0.1303453
+PB      = 0.6944804      PBSW     = 0.6944804      PBSWG    = 0.6944804
+CTA     = 9.42521E-4     CTP      = 4.91382E-04    PTA      = 1.485657E-03
+PTP     = 1.485657E-03   CGDO     = cgon           CGSO     = cgon
+XTI     = 3              N        = 1              CAPMOD   = 0
+NQSMOD  = 0              XPART    = 1              CF       = 0 
+CALCACM = 1              SFVTFLAG = 0              VFBFLAG  = 1       
+NLEV    = 3              AF       = 0.85           KF       = 1.0E-24
+JS      = 6.27496E-05    JSW      = 5.79847E-10          )   
*
*
.MODEL nch.5             NMOS   (                    LMIN    = '8.07E-07-dxl'  
+LMAX    = '1.207E-06-dxl' WMIN    = '7.83E-07-dxw'  WMAX    = '1.183E-06-dxw' 
+LEVEL   = 49              TNOM    = 25              VERSION = 3.1             
+ACM     = 12              LDIF    = 1.2E-07         HDIF    = hdifn           
+RSH     = 82.2            RD      = 0               RS      = 0               
+TOX     = toxn            XJ      = 1E-07           NCH     = 2.3579E+17      
+LLN     = 1               LWN     = 1               WLN     = 1               
+WWN     = 1               LINT    = 4E-08           LL      = 0               
+LW      = 0               LWL     = 0               WINT    = 4E-08           
+WL      = 0               WW      = 0               WWL     = 0               
+MOBMOD  = 1               BINUNIT = 2               XL      = '3E-08+dxl'     
+XW      = '1.5E-07+dxw'   DWG     = 0               DWB     = 0               
+VTH0    = 'dvtn+0.467619' LVTH0   = 8.094657E-08    WVTH0   = 4.90438E-08     
+PVTH0   = -6.156729E-14   K1      = 0.358099        LK1     = 1.44821E-07     
+WK1     = 7.01475E-08     PK1     = -7.778778E-14   K2      = 0.07054502      
+LK2     = -4.299056E-08   WK2     = -4.113562E-08   PK2     = 4.035377E-14    
+K3      = 0               DVT0    = 0               DVT1    = 0               
+DVT2    = 0               DVT0W   = 0               DVT1W   = 0               
+DVT2W   = 0               NLX     = 0               W0      = 0               
+K3B     = 0               VSAT    = 78576.45        LVSAT   = 0.02074592      
+WVSAT   = -0.01132088     PVSAT   = 1.309826E-08    UA      = 0               
+UB      = 5.741077E-19    LUB     = 1.292701E-24    WUB     = 1.062641E-24    
+PUB     = -1.677764E-30   UC      = 3.660264E-11    LUC     = 1.982473E-17    
+WUC     = -2.295341E-17   PUC     = -1.502111E-23   RDSW    = 750             
+PRWB    = 0               PRWG    = 0               WR      = 1               
+U0      = 0.03874022      LU0     = -4.542793E-09   WU0     = -3.769856E-09   
+PU0     = 5.406313E-15    A0      = 2.791505        LA0     = -1.609995E-06   
+WA0     = -1.271796E-06   PA0     = 1.108491E-12    KETA    = 0.0321512       
+LKETA   = -2.65058E-08    WKETA   = -1.965488E-08   PKETA   = 2.466123E-14    
+A1      = 0               A2      = 0.99            AGS     = 0.9056002       
+LAGS    = -7.006794E-07   B0      = 0               B1      = 0               
+VOFF    = -0.1            NFACTOR = 0.7543952       LNFACTOR= 1.161336E-07    
+WNFACTOR= 6.998602E-08    PNFACTOR= -1.085636E-13   CIT     = 0.000285048     
+LCIT    = -7.870424E-11   WCIT    = -7.062511E-11   PCIT    = 1.330915E-16    
+CDSC    = 0               CDSCB   = 0               CDSCD   = 0               
+ETA0    = 0.003352228     LETA0   = -2.973624E-09   WETA0   = -3.048375E-09   
+PETA0   = 3.405695E-15    ETAB    = 0.0006475641    LETAB   = -6.087711E-10   
+WETAB   = -6.928325E-10   PETAB   = 6.256102E-16    DSUB    = 0               
+PCLM    = 1.032518        LPCLM   = -3.847236E-07   WPCLM   = -6.537757E-07   
+PPCLM   = 7.564184E-13    PDIBLC1 = 1E-05           PDIBLC2 = -0.00416775     
+LPDIBLC2= 5.857526E-09    WPDIBLC2= 3.274343E-09    PPDIBLC2= -2.029931E-15   
+PDIBLCB = 0.1387533       DROUT   = 0               PSCBE1  = 1.089719E+08    
+LPSCBE1 = 156.0066        WPSCBE1 = 240.2935        PPSCBE1 = -0.000109865    
+PSCBE2  = -5.255092E-06   LPSCBE2 = 3.628897E-12    WPSCBE2 = 1.043208E-11    
+PPSCBE2 = -5.537501E-18   PVAG    = 0               DELTA   = 0.01            
+ALPHA0  = 2.5E-06         BETA0   = 20.7            KT1     = -0.09596287     
+LKT1    = -6.455721E-08   WKT1    = -1.169567E-07   PKT1    = 3.638983E-14    
+KT2     = 0.07813779      LKT2    = -6.414494E-08   WKT2    = -8.944794E-08   
+PKT2    = 5.869918E-14    AT      = -110972.9       LAT     = 0.1102741       
+WAT     = 0.1529166       PAT     = -1.614668E-07   UTE     = -3.559982       
+LUTE    = 1.667736E-06    WUTE    = 1.777075E-06    PUTE    = -1.623261E-12   
+UA1     = -5.651362E-10   LUA1    = -9.832879E-17   WUA1    = 3.654639E-16    
+PUA1    = 1.9884E-22      UB1     = -6.47051E-19    LUB1    = -7.301864E-25   
+WUB1    = 3.564699E-25    PUB1    = 8.010748E-31    UC1     = -8.009362E-12   
+LUC1    = -1.219232E-16   WUC1    = -5.362414E-18   PUC1    = 1.244631E-22    
+KT1L    = 0               PRT     = -2390.559       LPRT    = 0.002332001     
+WPRT    = 0.00169471      PPRT    = -1.960779E-09   
+CJ      = cjn            CJSW     = cjswn          CJSWG    = cjswgn 
+MJ      = 0.3297355      MJSW     = 0.1303453      MJSWG    = 0.1303453
+PB      = 0.6944804      PBSW     = 0.6944804      PBSWG    = 0.6944804
+CTA     = 9.42521E-4     CTP      = 4.91382E-04    PTA      = 1.485657E-03
+PTP     = 1.485657E-03   CGDO     = cgon           CGSO     = cgon
+XTI     = 3              N        = 1              CAPMOD   = 0
+NQSMOD  = 0              XPART    = 1              CF       = 0 
+CALCACM = 1              SFVTFLAG = 0              VFBFLAG  = 1       
+NLEV    = 3              AF       = 0.85           KF       = 1.0E-24
+JS      = 6.27496E-05    JSW      = 5.79847E-10          )
*
*
.MODEL nch.6             NMOS   (                    LMIN    = 3.5E-07         
+LMAX    = '8.07E-07-dxl'  WMIN    = '7.83E-07-dxw'  WMAX    = '1.183E-06-dxw' 
+LEVEL   = 49              TNOM    = 25              VERSION = 3.1             
+ACM     = 12              LDIF    = 1.2E-07         HDIF    = hdifn           
+RSH     = 82.2            RD      = 0               RS      = 0               
+TOX     = toxn            XJ      = 1E-07           NCH     = 2.3579E+17      
+LLN     = 1               LWN     = 1               WLN     = 1               
+WWN     = 1               LINT    = 4E-08           LL      = 0               
+LW      = 0               LWL     = 0               WINT    = 4E-08           
+WL      = 0               WW      = 0               WWL     = 0               
+MOBMOD  = 1               BINUNIT = 2               XL      = '3E-08+dxl'     
+XW      = '1.5E-07+dxw'   DWG     = 0               DWB     = 0               
+VTH0    = 'dvtn+0.574607' LVTH0   = -4.339362E-11   WVTH0   = -4.991848E-08   
+PVTH0   = 1.334716E-14    K1      = 0.5850455       LK1     = -2.697753E-08   
+WK1     = -6.326979E-08   PK1     = 2.320913E-14    K2      = 0.03486114      
+LK2     = -1.597786E-08   WK2     = 1.119166E-08    PK2     = 7.420165E-16    
+K3      = 0               DVT0    = 0               DVT1    = 0               
+DVT2    = 0               DVT0W   = 0               DVT1W   = 0               
+DVT2W   = 0               NLX     = 0               W0      = 0               
+K3B     = 0               VSAT    = 119212.2        LVSAT   = -0.01001536     
+WVSAT   = -0.002492058    PVSAT   = 6.414841E-09    UA      = -1.425246E-09   
+LUA     = 1.078912E-15    WUA     = 1.785833E-15    PUA     = -1.351876E-21   
+UB      = 4.112102E-18    LUB     = -1.385562E-24   WUB     = -3.105826E-24   
+PUB     = 1.477766E-30    UC      = 4.050535E-11    LUC     = 1.687038E-17    
+WUC     = -1.424299E-17   PUC     = -2.161491E-23   RDSW    = 750             
+PRWB    = 0               PRWG    = 0               WR      = 1               
+U0      = 0.02507698      LU0     = 5.800281E-09    WU0     = 1.429596E-08    
+PU0     = -8.26951E-15    A0      = 0.3001916       LA0     = 2.759296E-07    
+WA0     = 2.92755E-07     PA0     = -7.587451E-14   KETA    = -0.05698659     
+LKETA   = 4.097151E-08    WKETA   = 5.056813E-08    PKETA   = -2.84976E-14    
+A1      = 0               A2      = 0.99            AGS     = -0.0458255      
+LAGS    = 1.954991E-08    WAGS    = 2.381111E-08    PAGS    = -1.802502E-14   
+B0      = 0               B1      = 0               VOFF    = -0.141804       
+LVOFF   = 3.164562E-08    WVOFF   = 2.706921E-08    PVOFF   = -2.049139E-14   
+NFACTOR = 1.157475        LNFACTOR= -1.889977E-07   WNFACTOR= -2.007654E-07   
+PNFACTOR= 9.63953E-14     CIT     = 0.0001456854    LCIT    = 2.679317E-11    
+WCIT    = -9.555716E-12   PCIT    = 8.686202E-17    CDSC    = 0               
+CDSCB   = 0               CDSCD   = 0               ETA0    = -0.006824942    
+LETA0   = 4.730496E-09    WETA0   = 6.882274E-09    PETA0   = -4.111808E-15   
+ETAB    = 0.0002038415    LETAB   = -2.728731E-10   WETAB   = 2.081748E-10    
+PETAB   = -5.645233E-17   DSUB    = 0               PCLM    = 0.8004329       
+LPCLM   = -2.090351E-07   WPCLM   = -3.558609E-08   PPCLM   = 2.884489E-13    
+PDIBLC1 = 1E-05           PDIBLC2 = 0.005613619     LPDIBLC2= -1.546974E-09   
+WPDIBLC2= -6.866557E-09   PPDIBLC2= 5.646734E-15    PDIBLCB = 0.1320065       
+LPDIBLCB= 5.107366E-09    WPDIBLCB= 1.060778E-07    PPDIBLCB= -8.030091E-14   
+DROUT   = 0               PSCBE1  = 6.561562E+07    LPSCBE1 = 188.8273        
+WPSCBE1 = 312.9262        PPSCBE1 = -0.000164848    PSCBE2  = -1.060816E-05   
+LPSCBE2 = 7.681177E-12    WPSCBE2 = 1.299818E-11    PPSCBE2 = -7.480043E-18   
+PVAG    = 0               DELTA   = 0.01            ALPHA0  = 2.5E-06   
+BETA0   = 20.7            KT1     = -0.2037678      LKT1    = 1.705115E-08    
+WKT1    = 1.984253E-08    PKT1    = -6.716717E-14   KT2     = -0.01380252     
+LKT2    = 5.453875E-09    WKT2    = -7.416772E-10   PKT2    = -8.45146E-15    
+AT      = 92820.91        LAT     = -0.04399785     WAT     = -0.1314896      
+PAT     = 5.382871E-08    UTE     = 0.1429917       LUTE    = -1.135416E-06   
+WUTE    = -1.857417E-06   PUTE    = 1.12805E-12     UA1     = 7.997219E-09    
+LUA1    = -6.580034E-15   WUA1    = -7.949868E-15   PUA1    = 6.493548E-21    
+UB1     = -1.595098E-17   LUB1    = 1.08549E-23     WUB1    = 1.52327E-23     
+PUB1    = -1.046024E-29   UC1     = -4.433896E-10   LUC1    = 2.076597E-16    
+WUC1    = 4.137613E-16    PUC1    = -1.928136E-22   KT1L    = 0               
+PRT     = 1397.411        LPRT    = -0.0005354923   WPRT    = -0.001742289    
+PPRT    = 6.410293E-10
+CJ      = cjn            CJSW     = cjswn          CJSWG    = cjswgn 
+MJ      = 0.3297355      MJSW     = 0.1303453      MJSWG    = 0.1303453
+PB      = 0.6944804      PBSW     = 0.6944804      PBSWG    = 0.6944804
+CTA     = 9.42521E-4     CTP      = 4.91382E-04    PTA      = 1.485657E-03
+PTP     = 1.485657E-03   CGDO     = cgon           CGSO     = cgon
+XTI     = 3              N        = 1              CAPMOD   = 0
+NQSMOD  = 0              XPART    = 1              CF       = 0 
+CALCACM = 1              SFVTFLAG = 0              VFBFLAG  = 1       
+NLEV    = 3              AF       = 0.85           KF       = 1.0E-24
+JS      = 6.27496E-05    JSW      = 5.79847E-10          )    
*
*
.MODEL nch.7             NMOS   (                    LMIN    = '1.207E-06-dxl' 
+LMAX    = 2.01E-05        WMIN    = 4E-07           WMAX    = '7.83E-07-dxw'  
+LEVEL   = 49              TNOM    = 25              VERSION = 3.1             
+ACM     = 12              LDIF    = 1.2E-07         HDIF    = hdifn           
+RSH     = 82.2            RD      = 0               RS      = 0               
+TOX     = toxn            XJ      = 1E-07           NCH     = 2.3579E+17      
+LLN     = 1               LWN     = 1               WLN     = 1               
+WWN     = 1               LINT    = 4E-08           LL      = 0               
+LW      = 0               LWL     = 0               WINT    = 4E-08           
+WL      = 0               WW      = 0               WWL     = 0               
+MOBMOD  = 1               BINUNIT = 2               XL      = '3E-08+dxl'     
+XW      = '1.5E-07+dxw'   DWG     = 0               DWB     = 0               
+VTH0    = 'dvtn+0.544538' LVTH0   = 1.720274E-08    WVTH0   = -2.546298E-08   
+PVTH0   = 3.096841E-15    K1      = 0.5502741       LK1     = -3.125255E-08   
+WK1     = -4.411482E-08   PK1     = 1.494289E-14    K2      = 0.01727784      
+LK2     = -1.487584E-08   WK2     = 1.441049E-08    PK2     = 4.675549E-15    
+K3      = 0               DVT0    = 0               DVT1    = 0               
+DVT2    = 0               DVT0W   = 0               DVT1W   = 0               
+DVT2W   = 0               NLX     = 0               W0      = 0               
+K3B     = 0               VSAT    = 96507.23        UA      = -7.802065E-10   
+LUA     = 9.026988E-16    WUA     = 3.534335E-16    PUA     = -4.089226E-22   
+UB      = 1.893473E-18    LUB     = -5.306664E-25   WUB     = -1.580168E-25   
+PUB     = -1.223976E-32   UC      = 2.085218E-11    LUC     = 1.298873E-17    
+WUC     = -2.192611E-18   PUC     = -1.766579E-23   RDSW    = 750             
+PRWB    = 0               PRWG    = 0               WR      = 1               
+U0      = 0.03104484      LU0     = 4.876105E-09    WU0     = 7.504263E-10    
+PU0     = -2.632391E-16   A0      = 0.5611327       LA0     = 5.492548E-07    
+WA0     = 7.205156E-08    PA0     = -8.697965E-14   KETA    = 0.01632805      
+LKETA   = 1.817118E-09    WKETA   = -4.562111E-09   PKETA   = -1.344362E-15   
+A1      = 0               A2      = 0.99            AGS     = 0.001377129     
+LAGS    = 3.717127E-07    WAGS    = 1.188842E-09    PAGS    = -2.372926E-14   
+B0      = 0               B1      = 0               VOFF    = -0.1332525      
+LVOFF   = 3.847315E-08    WVOFF   = 1.025464E-08    PVOFF   = -1.186462E-14   
+NFACTOR = 1.473942        LNFACTOR= -7.516272E-07   WNFACTOR= -5.794843E-07   
+PNFACTOR= 6.729374E-13    CIT     = -0.0006621464   LCIT    = 1.027861E-09    
+WCIT    = 8.332366E-10    PCIT    = -9.217706E-16   CDSC    = 0               
+CDSCB   = 0               CDSCD   = 0               ETA0    = 7.131314E-05    
+LETA0   = 5.99268E-10     WETA0   = 2.599593E-11    PETA0   = 3.897462E-17    
+ETAB    = 2.000076E-05    LETAB   = -4.256616E-10   WETAB   = -5.017732E-12   
+PETAB   = 2.929716E-16    DSUB    = 0               PCLM    = 0.1762022       
+LPCLM   = 4.750038E-07    WPCLM   = -5.944212E-09   PPCLM   = 1.186463E-13    
+PDIBLC1 = 1E-05           PDIBLC2 = 0.0002290868    LPDIBLC2= 8.598363E-10    
+WPDIBLC2= -1.981044E-10   PPDIBLC2= 1.91139E-15     PDIBLCB = 0.1304779       
+LPDIBLCB= 1.651774E-07    WPDIBLCB= 7.058936E-09    PPDIBLCB= -1.408963E-13   
+DROUT   = 0               PSCBE1  = 4.235152E+08    LPSCBE1 = -58.8318        
+WPSCBE1 = 15.34459        PPSCBE1 = 2.322858E-05    PSCBE2  = 7.703648E-05    
+LPSCBE2 = -8.780832E-11   WPSCBE2 = 1.942555E-11    PPSCBE2 = -1.916228E-17   
+PVAG    = 0               DELTA   = 0.01            ALPHA0  = 2.5E-06 
+BETA0   = 20.7            KT1     = -0.3097948      LKT1    = 8.128185E-08    
+WKT1    = 1.398491E-08    PKT1    = -2.847512E-14   KT2     = -0.005076239    
+LKT2    = -4.617562E-08   WKT2    = -1.103323E-08   PKT2    = 3.477121E-14    
+AT      = 82328.36        LAT     = -0.08739209     WAT     = -0.06117122     
+PAT     = 6.406897E-08    UTE     = -1.349974       LUTE    = -6.17695E-07    
+WUTE    = 5.706533E-08    PUTE    = 1.351592E-13    UA1     = 3.045211E-09    
+LUA1    = -4.130031E-15   WUA1    = -7.774787E-16   PUA1    = 1.397139E-21    
+UB1     = -3.662418E-18   LUB1    = 4.251251E-24    WUB1    = 8.839907E-25    
+PUB1    = -1.082504E-30   UC1     = -1.046373E-10   LUC1    = 1.031438E-16    
+WUC1    = 2.654866E-17    PUC1    = -9.075983E-24   KT1L    = 0               
+PRT     = 473.8944        LPRT    = -0.0009821708   WPRT    = -0.0003845492   
+PPRT    = 4.449234E-10    
+CJ      = cjn            CJSW     = cjswn          CJSWG    = cjswgn 
+MJ      = 0.3297355      MJSW     = 0.1303453      MJSWG    = 0.1303453
+PB      = 0.6944804      PBSW     = 0.6944804      PBSWG    = 0.6944804
+CTA     = 9.42521E-4     CTP      = 4.91382E-04    PTA      = 1.485657E-03
+PTP     = 1.485657E-03   CGDO     = cgon           CGSO     = cgon
+XTI     = 3              N        = 1              CAPMOD   = 0
+NQSMOD  = 0              XPART    = 1              CF       = 0 
+CALCACM = 1              SFVTFLAG = 0              VFBFLAG  = 1       
+NLEV    = 3              AF       = 0.85           KF       = 1.0E-24
+JS      = 6.27496E-05    JSW      = 5.79847E-10          )
*
*
.MODEL nch.8             NMOS   (                    LMIN    = '8.07E-07-dxl'  
+LMAX    = '1.207E-06-dxl' WMIN    = 4E-07           WMAX    = '7.83E-07-dxw'  
+LEVEL   = 49              TNOM    = 25              VERSION = 3.1             
+ACM     = 12              LDIF    = 1.2E-07         HDIF    = hdifn           
+RSH     = 82.2            RD      = 0               RS      = 0               
+TOX     = toxn            XJ      = 1E-07           NCH     = 2.3579E+17      
+LLN     = 1               LWN     = 1               WLN     = 1               
+WWN     = 1               LINT    = 4E-08           LL      = 0               
+LW      = 0               LWL     = 0               WINT    = 4E-08           
+WL      = 0               WW      = 0               WWL     = 0               
+MOBMOD  = 1               BINUNIT = 2               XL      = '3E-08+dxl'     
+XW      = '1.5E-07+dxw'   DWG     = 0               DWB     = 0               
+VTH0    = 'dvtn+0.611238' LVTH0   = -5.996844E-08   WVTH0   = -7.346332E-08   
+PVTH0   = 5.863323E-14    K1      = 0.4463096       LK1     = 8.903435E-08    
+WK1     = -5.096067E-09   PK1     = -3.02018E-14    K2      = -0.009934468    
+LK2     = 1.660881E-08    WK2     = 2.751338E-08    PK2     = -1.048449E-14   
+K3      = 0               DVT0    = 0               DVT1    = 0               
+DVT2    = 0               DVT0W   = 0               DVT1W   = 0               
+DVT2W   = 0               NLX     = 0               W0      = 0               
+K3B     = 0               VSAT    = 51524.56        LVSAT   = 0.05204498      
+WVSAT   = 0.01175437      PVSAT   = -1.359984E-08   UA      = 0               
+UB      = 1.684949E-18    LUB     = -2.894038E-25   WUB     = 1.150939E-25    
+PUB     = -3.282287E-31   UC      = -5.621833E-11   LUC     = 1.021593E-16    
+WUC     = 5.62229E-17     PUC     = -8.525252E-23   RDSW    = 750             
+PRWB    = 0               PRWG    = 0               WR      = 1               
+U0      = 0.03584241      LU0     = -6.746811E-10   WU0     = -1.298021E-09   
+PU0     = 2.106814E-15    A0      = 1.069539        LA0     = -3.897101E-08   
+WA0     = 1.970411E-07    PA0     = -2.315925E-13   KETA    = 0.01530131      
+LKETA   = 3.005051E-09    WKETA   = -5.28193E-09    PKETA   = -5.115318E-16   
+A1      = 0               A2      = 0.99            AGS     = 0.5853289       
+LAGS    = -3.039196E-07   WAGS    = 2.731914E-07    PAGS    = -3.384361E-13   
+B0      = 0               B1      = 0               VOFF    = -0.1            
+NFACTOR = 0.6173926       LNFACTOR= 2.394008E-07    WNFACTOR= 1.868493E-07    
+PNFACTOR= -2.137105E-13   CIT     = 0.0003063107    LCIT    = -9.264402E-11   
+WCIT    = -8.876222E-11   PCIT    = 1.449822E-16    CDSC    = 0               
+CDSCB   = 0               CDSCD   = 0               ETA0    = -0.0001093099   
+LETA0   = 8.082487E-10    WETA0   = -9.568357E-11   PETA0   = 1.797578E-16    
+ETAB    = -0.001177763    LETAB   = 9.601505E-10    WETAB   = 8.641713E-10    
+PETAB   = -7.1268E-16     DSUB    = 0               PCLM    = 0.0900574       
+LPCLM   = 5.746733E-07    WPCLM   = 1.501435E-07    PPCLM   = -6.194717E-14   
+PDIBLC1 = 1E-05           PDIBLC2 = -0.009213444    LPDIBLC2= 1.178484E-08    
+WPDIBLC2= 7.578321E-09    PPDIBLC2= -7.085934E-15   PDIBLCB = 0.2732414       
+WPDIBLCB= -1.147183E-07   DROUT   = 0               PSCBE1  = 2.142517E+08    
+LPSCBE1 = 183.286         WPSCBE1 = 150.4898        PPSCBE1 = -0.0001331344   
+PSCBE2  = -3.838787E-06   LPSCBE2 = 5.764359E-12    WPSCBE2 = 9.223971E-12    
+PPSCBE2 = -7.359051E-18   PVAG    = 0               DELTA   = 0.01            
+ALPHA0  = 2.5E-06         BETA0   = 20.7            KT1     = -0.1747238      
+LKT1    = -7.499526E-08   WKT1    = -4.977362E-08   PKT1    = 4.52935E-14     
+KT2     = -0.09084979     LKT2    = 5.306439E-08    WKT2    = 5.469848E-08    
+PKT2    = -4.128039E-14   AT      = 156661.5        LAT     = -0.1733955      
+WAT     = -0.07537551     PAT     = 8.050333E-08    UTE     = -1.664549       
+LUTE    = -2.537307E-07   WUTE    = 1.602711E-07    PUTE    = 1.575007E-14    
+UA1     = -1.327711E-09   LUA1    = 9.29439E-16     WUA1    = 1.01594E-15     
+PUA1    = -6.778459E-22   UB1     = -4.245534E-19   LUB1    = 5.05042E-25     
+WUB1    = 1.666793E-25    PUB1    = -2.525749E-31   UC1     = -1.090144E-10   
+LUC1    = 1.082081E-16    WUC1    = 8.079491E-17    PUC1    = -7.183889E-23   
+KT1L    = 0               PRT     = 404.2872        LPRT    = -0.0009016352   
+WPRT    = -0.0006892931   PPRT    = 7.97512E-10     
+CJ      = cjn            CJSW     = cjswn          CJSWG    = cjswgn 
+MJ      = 0.3297355      MJSW     = 0.1303453      MJSWG    = 0.1303453
+PB      = 0.6944804      PBSW     = 0.6944804      PBSWG    = 0.6944804
+CTA     = 9.42521E-4     CTP      = 4.91382E-04    PTA      = 1.485657E-03
+PTP     = 1.485657E-03   CGDO     = cgon           CGSO     = cgon
+XTI     = 3              N        = 1              CAPMOD   = 0
+NQSMOD  = 0              XPART    = 1              CF       = 0 
+CALCACM = 1              SFVTFLAG = 0              VFBFLAG  = 1       
+NLEV    = 3              AF       = 0.85           KF       = 1.0E-24
+JS      = 6.27496E-05    JSW      = 5.79847E-10          )
*
*
.MODEL nch.9             NMOS   (                    LMIN    = 3.5E-07         
+LMAX    = '8.07E-07-dxl'  WMIN    = 4E-07           WMAX    = '7.83E-07-dxw'  
+LEVEL   = 49              TNOM    = 25              VERSION = 3.1             
+ACM     = 12              LDIF    = 1.2E-07         HDIF    = hdifn           
+RSH     = 82.2            RD      = 0               RS      = 0               
+TOX     = toxn            XJ      = 1E-07           NCH     = 2.3579E+17      
+LLN     = 1               LWN     = 1               WLN     = 1               
+WWN     = 1               LINT    = 4E-08           LL      = 0               
+LW      = 0               LWL     = 0               WINT    = 4E-08           
+WL      = 0               WW      = 0               WWL     = 0               
+MOBMOD  = 1               BINUNIT = 2               XL      = '3E-08+dxl'     
+XW      = '1.5E-07+dxw'   DWG     = 0               DWB     = 0               
+VTH0    = 'dvtn+0.525422' LVTH0   = 4.993819E-09    WVTH0   = -9.507126E-09   
+PVTH0   = 1.021839E-14    K1      = 0.5813381       LK1     = -1.318226E-08   
+WK1     = -5.816663E-08   PK1     = 9.972617E-15    K2      = 0.02935361      
+LK2     = -1.313227E-08   WK2     = 1.606665E-08    PK2     = -1.819316E-15   
+K3      = 0               DVT0    = 0               DVT1    = 0               
+DVT2    = 0               DVT0W   = 0               DVT1W   = 0               
+DVT2W   = 0               NLX     = 0               W0      = 0               
+K3B     = 0               VSAT    = 124715.3        LVSAT   = -0.003360439    
+WVSAT   = -0.005906745    PVSAT   = -2.303697E-10   UA      = 1.237881E-09    
+LUA     = -9.370761E-16   WUA     = -6.6957E-16     PUA     = 5.068646E-22    
+UB      = 2.303303E-20    LUB     = 9.686662E-25    WUB     = 5.506454E-25    
+PUB     = -6.579411E-31   UC      = 9.352798E-11    LUC     = -1.119865E-17   
+WUC     = -6.127926E-17   PUC     = 3.696612E-24    RDSW    = 750             
+PRWB    = 0               PRWG    = 0               WR      = 1               
+U0      = 0.04878879      LU0     = -1.047509E-08   WU0     = -7.309575E-09   
+PU0     = 6.65756E-15     A0      = 0.2731722       LA0     = 5.638784E-07    
+WA0     = 3.586827E-07    PA0     = -3.539552E-13   KETA    = 0.01651734      
+LKETA   = 2.084521E-09    WKETA   = -1.463331E-08   PKETA   = 6.567465E-15    
+A1      = 0               A2      = 0.99            AGS     = -0.09344225     
+LAGS    = 2.099102E-07    WAGS    = 9.137526E-08    PAGS    = -2.008013E-13   
+B0      = 0               B1      = 0               VOFF    = -0.1301078      
+LVOFF   = 2.279158E-08    WVOFF   = 1.628529E-08    PVOFF   = -1.232797E-14   
+NFACTOR = 1.136485        LNFACTOR= -1.535521E-07   WNFACTOR= -1.784141E-07   
+PNFACTOR= 6.279391E-14    CIT     = -9.737274E-05   LCIT    = 2.129444E-10    
+WCIT    = 2.148746E-10    PCIT    = -8.487093E-17   CDSC    = 0               
+CDSCB   = 0               CDSCD   = 0               ETA0    = 0.0001017259    
+LETA0   = 6.484946E-10    WETA0   = 6.739802E-10    PETA0   = -4.028777E-16   
+ETAB    = 0.0005133018    LETAB   = -3.199854E-10   WETAB   = -4.845151E-11   
+PETAB   = -2.18245E-17    DSUB    = 0               PCLM    = 1.355904        
+LPCLM   = -3.835729E-07   WPCLM   = -5.100177E-07   PPCLM   = 4.377949E-13    
+PDIBLC1 = 1E-05           PDIBLC2 = 0.002662655     LPDIBLC2= 2.794636E-09    
+WPDIBLC2= -3.822584E-09   PPDIBLC2= 1.544552E-15    PDIBLCB = 0.5120286       
+LPDIBLCB= -1.807619E-07   WPDIBLCB= -2.286922E-07   PPDIBLCB= 8.627818E-14    
+DROUT   = 0               PSCBE1  = 4.613509E+08    LPSCBE1 = -3.768093       
+WPSCBE1 = -35.53878       PPSCBE1 = 7.689244E-06    PSCBE2  = 4.618633E-06    
+LPSCBE2 = -6.379074E-13   WPSCBE2 = -5.490942E-13   PPSCBE2 = 3.915955E-20    
+PVAG    = 0               DELTA   = 0.01            ALPHA0  = 2.5E-06 
+BETA0   = 20.7            KT1     = -0.1251057      LKT1    = -1.125561E-07   
+WKT1    = -6.342647E-08   PKT1    = 5.562872E-14    KT2     = -0.01401484     
+LKT2    = -5.099672E-09   WKT2    = -2.188774E-09   PKT2    = 1.783267E-15    
+AT      = -99596.23       LAT     = 0.02059158      WAT     = 0.0334882       
+PAT     = -1.906498E-09   UTE     = -2.786766       LUTE    = 5.957877E-07    
+WUTE    = 7.692041E-07    PUTE    = -4.452122E-13   UA1     = -2.983657E-09   
+LUA1    = 2.182991E-15    WUA1    = 2.243578E-15    PUA1    = -1.607168E-21   
+UB1     = 3.855079E-18    LUB1    = -2.73464E-24    WUB1    = -2.81326E-24    
+PUB1    = 2.003239E-30    UC1     = 1.684049E-10    LUC1    = -1.017984E-16   
+WUC1    = -1.267505E-16   PUC1    = 8.527297E-23    KT1L    = 0               
+PRT     = -1377.407       LPRT    = 0.0004471074    WPRT    = 0.0006446759    
+PPRT    = -2.123025E-10   
+CJ      = cjn            CJSW     = cjswn          CJSWG    = cjswgn 
+MJ      = 0.3297355      MJSW     = 0.1303453      MJSWG    = 0.1303453
+PB      = 0.6944804      PBSW     = 0.6944804      PBSWG    = 0.6944804
+CTA     = 9.42521E-4     CTP      = 4.91382E-04    PTA      = 1.485657E-03
+PTP     = 1.485657E-03   CGDO     = cgon           CGSO     = cgon
+XTI     = 3              N        = 1              CAPMOD   = 0
+NQSMOD  = 0              XPART    = 1              CF       = 0 
+CALCACM = 1              SFVTFLAG = 0              VFBFLAG  = 1       
+NLEV    = 3              AF       = 0.85           KF       = 1.0E-24
+JS      = 6.27496E-05    JSW      = 5.79847E-10          )
*
*
.MODEL nch.10            NMOS   (                    LMIN    = '1.207E-06-dxl' 
+LMAX    = 2.01E-05        WMIN    = '1.9983E-5-dxw' WMAX    = 0.0002001       
+LEVEL   = 49              TNOM    = 25              VERSION = 3.1             
+ACM     = 12              LDIF    = 1.2E-07         HDIF    = hdifn           
+RSH     = 82.2            RD      = 0               RS      = 0               
+TOX     = toxn            XJ      = 1E-07           NCH     = 2.3579E+17      
+LLN     = 1               LWN     = 1               WLN     = 1               
+WWN     = 1               LINT    = 4E-08           LL      = 0               
+LW      = 0               LWL     = 0               WINT    = 4E-08           
+WL      = 0               WW      = 0               WWL     = 0               
+MOBMOD  = 1               BINUNIT = 2               XL      = '3E-08+dxl'     
+XW      = '1.5E-07+dxw'   DWG     = 0               DWB     = 0               
+VTH0    = 'dvtn+0.523596' LVTH0   = 4.430968E-08    WVTH0   = 2.279147E-07    
+PVTH0   = -1.658529E-13   K1      = 0.5035352       LK1     = -1.691519E-08   
+WK1     = 3.732626E-07    PK1     = 3.252572E-14    K2      = 0.02639952      
+LK2     = 3.398003E-09    WK2     = 1.980659E-08    PK2     = -1.967438E-13   
+K3      = 0               DVT0    = 0               DVT1    = 0               
+DVT2    = 0               DVT0W   = 0               DVT1W   = 0               
+DVT2W   = 0               NLX     = 0               W0      = 0               
+K3B     = 0               VSAT    = 96575.78        LVSAT   = -0.001368327    
+WVSAT   = -0.01371178     PVSAT   = 2.736871E-07    UA      = -7.243246E-10   
+LUA     = 8.380434E-16    WUA     = 1.452271E-14    PUA     = -1.680277E-20   
+UB      = 2.507682E-18    LUB     = -9.292725E-25   WUB     = -9.214355E-24   
+PUB     = 2.931189E-29    UC      = 4.653199E-11    LUC     = -2.983065E-18   
+WUC     = 3.755784E-16    PUC     = 4.023481E-22    RDSW    = 750             
+PRWB    = 0               PRWG    = 0               WR      = 1               
+U0      = 0.03921134      LU0     = 6.986588E-09    WU0     = 1.319081E-07    
+PU0     = -3.363066E-14   A0      = 0.5149775       LA0     = 5.62179E-07     
+WA0     = 3.965712E-07    PA0     = -6.604507E-13   KETA    = 0.002816328     
+LKETA   = 1.495658E-09    WKETA   = -1.99353E-07    PKETA   = 4.208207E-13    
+A1      = 0               A2      = 0.99            AGS     = -0.0002663955   
+LAGS    = 1.790876E-07    WAGS    = 2.118263E-06    PAGS    = -1.182575E-12   
+B0      = 0               B1      = 0               VOFF    = -0.118934       
+LVOFF   = 2.319556E-08    WVOFF   = -4.593862E-07   PVOFF   = 2.736873E-13    
+NFACTOR = 1.089919        LNFACTOR= 9.594396E-08    WNFACTOR= -6.849148E-07   
+PNFACTOR= -7.894476E-12   CIT     = -0.0001081982   LCIT    = -1.689249E-10   
+WCIT    = 1.105833E-09    PCIT    = 8.443418E-15    CDSC    = 0               
+CDSCB   = 0               CDSCD   = 0               ETA0    = 7.25065E-05     
+LETA0   = 9.311983E-10    WETA0   = 2.699823E-09    PETA0   = -8.521816E-15   
+ETAB    = 1.007015E-05    LETAB   = -1.165116E-11   WETAB   = 1.090467E-10    
+PETAB   = -1.26167E-16    DSUB    = 0               PCLM    = 0.1835384       
+LPCLM   = 3.285741E-07    WPCLM   = -3.996779E-07   PPCLM   = 7.977571E-12    
+PDIBLC1 = 1E-05           PDIBLC2 = 0.0001413927    LPDIBLC2= 2.353788E-09    
+WPDIBLC2= -5.212645E-09   PPDIBLC2= 1.331389E-14    PDIBLCB = 0.1387533       
+WPDIBLCB= -7.049708E-12   PPDIBLCB= 8.156512E-18    DROUT   = 0               
+PSCBE1  = 4.16586E+08     LPSCBE1 = 95.76174        WPSCBE1 = 1018.363        
+PPSCBE1 = -0.002893393    PSCBE2  = 4.54933E-05     LPSCBE2 = -3.308092E-11   
+WPSCBE2 = 1.977595E-09    PPSCBE2 = -2.578818E-15   PVAG    = 0               
+DELTA   = 0.01            ALPHA0  = 2.5E-06         BETA0   = 20.7            
+KT1     = -0.2964827      LKT1    = -3.814854E-09   WKT1    = 5.58119E-07     
+PKT1    = -4.652679E-13   KT2     = -0.02842824     LKT2    = 8.383796E-09    
+WKT2    = -2.3451E-07     PKT2    = 3.219478E-13    AT      = 58413.87        
+LAT     = -0.05857738     WAT     = -1.129092       PAT     = 6.618029E-07    
+UTE     = -1.535532       LUTE    = -2.949172E-07   WUTE    = -1.015238E-05   
+PUTE    = -2.039471E-12   UA1     = 2.097278E-09    LUA1    = -2.304323E-15   
+WUA1    = -3.822868E-14   PUA1    = 1.742218E-20    UB1     = -3.46834E-18    
+LUB1    = 3.99078E-24     WUB1    = 2.604641E-23    PUB1    = -5.117401E-29   
+UC1     = -6.400205E-11   LUC1    = 1.303836E-17    WUC1    = 1.13159E-16     
+PUC1    = 8.023928E-22    KT1L    = 0               PRT     = -0.7466621      
+LPRT    = -6.926093E-06   WPRT    = -1.615575E-06   PPRT    = -6.542008E-11 
+CJ      = cjn            CJSW     = cjswn          CJSWG    = cjswgn 
+MJ      = 0.3297355      MJSW     = 0.1303453      MJSWG    = 0.1303453
+PB      = 0.6944804      PBSW     = 0.6944804      PBSWG    = 0.6944804
+CTA     = 9.42521E-4     CTP      = 4.91382E-04    PTA      = 1.485657E-03
+PTP     = 1.485657E-03   CGDO     = cgon           CGSO     = cgon
+XTI     = 3              N        = 1              CAPMOD   = 0
+NQSMOD  = 0              XPART    = 1              CF       = 0 
+CALCACM = 1              SFVTFLAG = 0              VFBFLAG  = 1       
+NLEV    = 3              AF       = 0.85           KF       = 1.0E-24
+JS      = 6.27496E-05    JSW      = 5.79847E-10          )  
*
*
.MODEL nch.11            NMOS   (                    LMIN    = '8.07E-07-dxl'  
+LMAX    = '1.207E-06-dxl' WMIN    = '1.9983E-5-dxw' WMAX    = 0.0002001       
+LEVEL   = 49              TNOM    = 25              VERSION = 3.1             
+ACM     = 12              LDIF    = 1.2E-07         HDIF    = hdifn           
+RSH     = 82.2            RD      = 0               RS      = 0               
+TOX     = toxn            XJ      = 1E-07           NCH     = 2.3579E+17      
+LLN     = 1               LWN     = 1               WLN     = 1               
+WWN     = 1               LINT    = 4E-08           LL      = 0               
+LW      = 0               LWL     = 0               WINT    = 4E-08           
+WL      = 0               WW      = 0               WWL     = 0               
+MOBMOD  = 1               BINUNIT = 2               XL      = '3E-08+dxl'     
+XW      = '1.5E-07+dxw'   DWG     = 0               DWB     = 0               
+VTH0    = 'dvtn+0.552335' LVTH0   = 1.105919E-08    WVTH0   = -1.638662E-07   
+PVTH0   = 2.874375E-13    K1      = 0.5140873       LK1     = -2.9124E-08     
+WK1     = -4.094213E-07   PK1     = 9.38091E-13     K2      = 0.03640923      
+LK2     = -8.183232E-09   WK2     = -2.058394E-07   PK2     = 6.432856E-14    
+K3      = 0               DVT0    = 0               DVT1    = 0               
+DVT2    = 0               DVT0W   = 0               DVT1W   = 0               
+DVT2W   = 0               NLX     = 0               W0      = 0               
+K3B     = 0               VSAT    = 93284.7         LVSAT   = 0.002439456     
+WVSAT   = 0.6445567       PVSAT   = -4.879294E-07   UA      = 0               
+UB      = 2.107241E-18    LUB     = -4.659615E-25   WUB     = 3.129772E-23    
+PUB     = -1.756058E-29   UC      = 1.015095E-10    LUC     = -6.65921E-17    
+WUC     = 4.098089E-16    PUC     = 3.627434E-22    RDSW    = 750             
+PRWB    = 0               PRWG    = 0               WR      = 1               
+U0      = 0.04695012      LU0     = -1.967186E-09   WU0     = 1.962427E-07    
+PU0     = -1.080658E-13   A0      = 1.123475        LA0     = -1.418531E-07   
+WA0     = 6.342665E-06    PA0     = -7.540081E-12   KETA    = 0.0194797       
+LKETA   = -1.778386E-08   WKETA   = 9.20202E-08     PKETA   = 8.370197E-14    
+A1      = 0               A2      = 0.99            AGS     = 0.2366145       
+LAGS    = -9.498365E-08   WAGS    = 7.387834E-06    PAGS    = -7.279468E-12   
+B0      = 0               B1      = 0               VOFF    = -0.0912467      
+LVOFF   = -8.83858E-09    WVOFF   = -1.750833E-06   PVOFF   = 1.767891E-12    
+NFACTOR = 1.222168        LNFACTOR= -5.706807E-08   WNFACTOR= -2.411932E-05   
+PNFACTOR= 1.921913E-11    CIT     = -0.0004653787   LCIT    = 2.443328E-10    
+WCIT    = 1.884997E-08    PCIT    = -1.208655E-14   CDSC    = 0               
+CDSCB   = 0               CDSCD   = 0               ETA0    = 0.001006312     
+LETA0   = -1.492144E-10   WETA0   = -1.672834E-08   PETA0   = 1.395657E-14    
+ETAB    = 0.0004206679    LETAB   = -4.867127E-10   WETAB   = -8.434391E-09   
+PETAB   = 9.758589E-15    DSUB    = 0               PCLM    = 1.103169        
+LPCLM   = -7.354388E-07   WPCLM   = -7.084521E-06   PPCLM   = 1.571193E-11    
+PDIBLC1 = 1E-05           PDIBLC2 = -0.0006830479   LPDIBLC2= 3.307666E-09    
+WPDIBLC2= -8.79269E-09    PPDIBLC2= 1.7456E-14      PDIBLCB = 0.1651368       
+LPDIBLCB= -3.052564E-08   WPDIBLCB= -5.277212E-06   PPDIBLCB= 6.105734E-12    
+DROUT   = 0               PSCBE1  = 5.782154E+08    LPSCBE1 = -91.24341       
+WPSCBE1 = -2414.635       PPSCBE1 = 0.001078585     PSCBE2  = 2.779844E-05    
+LPSCBE2 = -1.260797E-11   WPSCBE2 = -4.836938E-10   PPSCBE2 = 2.688923E-16    
+PVAG    = 0               DELTA   = 0.01            ALPHA0  = 2.5E-06  
+BETA0   = 20.7            KT1     = -0.356801       LKT1    = 6.597352E-08    
+WKT1    = 2.854991E-06    PKT1    = -3.122749E-12   KT2     = -0.01945076     
+LKT2    = -2.003143E-09   WKT2    = 1.835831E-07    PKT2    = -1.61786E-13    
+AT      = 1906.944        LAT     = 0.006801126     WAT     = -1.274016       
+PAT     = 8.294801E-07    UTE     = -1.979571       LUTE    = 2.188354E-07    
+WUTE    = -4.127272E-06   PUTE    = -9.010521E-12   UA1     = -2.167498E-10   
+LUA1    = 3.730067E-16    WUA1    = 1.302156E-14    PUA1    = -4.187434E-20   
+UB1     = -1.302893E-18   LUB1    = 1.485358E-24    WUB1    = -4.567962E-23   
+PUB1    = 3.1813E-29      UC1     = -3.468722E-10   LUC1    = 3.403191E-16    
+WUC1    = 6.229855E-15    PUC1    = -6.274624E-21   KT1L    = 0               
+PRT     = -10.67252       LPRT    = 4.558123E-06    WPRT    = -0.0002110901   
+PPRT    = 1.769419E-10   
+CJ      = cjn            CJSW     = cjswn          CJSWG    = cjswgn 
+MJ      = 0.3297355      MJSW     = 0.1303453      MJSWG    = 0.1303453
+PB      = 0.6944804      PBSW     = 0.6944804      PBSWG    = 0.6944804
+CTA     = 9.42521E-4     CTP      = 4.91382E-04    PTA      = 1.485657E-03
+PTP     = 1.485657E-03   CGDO     = cgon           CGSO     = cgon
+XTI     = 3              N        = 1              CAPMOD   = 0
+NQSMOD  = 0              XPART    = 1              CF       = 0 
+CALCACM = 1              SFVTFLAG = 0              VFBFLAG  = 1       
+NLEV    = 3              AF       = 0.85           KF       = 1.0E-24
+JS      = 6.27496E-05    JSW      = 5.79847E-10          )
*
*
.MODEL nch.12            NMOS   (                    LMIN    = 3.5E-07         
+LMAX    = '8.07E-07-dxl'  WMIN    = '1.9983E-5-dxw' WMAX    = 0.0002001       
+LEVEL   = 49              TNOM    = 25              VERSION = 3.1             
+ACM     = 12              LDIF    = 1.2E-07         HDIF    = hdifn           
+RSH     = 82.2            RD      = 0               RS      = 0               
+TOX     = toxn            XJ      = 1E-07           NCH     = 2.3579E+17      
+LLN     = 1               LWN     = 1               WLN     = 1               
+WWN     = 1               LINT    = 4E-08           LL      = 0               
+LW      = 0               LWL     = 0               WINT    = 4E-08           
+WL      = 0               WW      = 0               WWL     = 0               
+MOBMOD  = 1               BINUNIT = 2               XL      = '3E-08+dxl'     
+XW      = '1.5E-07+dxw'   DWG     = 0               DWB     = 0               
+VTH0    = 'dvtn+0.558288' LVTH0   = 6.552551E-09    WVTH0   = 4.333969E-07    
+PVTH0   = -1.646906E-13   K1      = 0.4243538       LK1     = 3.880428E-08    
+WK1     = 1.293692E-06    PK1     = -3.511657E-13   K2      = 0.05531685      
+LK2     = -2.24963E-08    WK2     = -2.018737E-07   PK2     = 6.132655E-14    
+K3      = 0               DVT0    = 0               DVT1    = 0               
+DVT2    = 0               DVT0W   = 0               DVT1W   = 0               
+DVT2W   = 0               NLX     = 0               W0      = 0               
+K3B     = 0               VSAT    = 96507.23        UA      = 5.780811E-10    
+LUA     = -4.376074E-16   WUA     = -1.159052E-14   PUA     = 8.774028E-21    
+UB      = 9.327076E-19    LUB     = 4.231599E-25    WUB     = 2.290615E-23    
+PUB     = -1.120815E-29   UC      = -4.252817E-11   LUC     = 4.244447E-17    
+WUC     = 2.133049E-15    PUC     = -9.417496E-22   RDSW    = 750             
+PRWB    = 0               PRWG    = 0               WR      = 1               
+U0      = 0.0493599       LU0     = -3.791383E-09   WU0     = -3.008583E-08   
+PU0     = 6.326492E-14    A0      = 1.108632        LA0     = -1.306164E-07   
+WA0     = -7.754034E-06   PA0     = 3.131122E-12    KETA    = -0.002019476    
+LKETA   = -1.508986E-09   WKETA   = 2.200248E-07    PKETA   = -1.319746E-14   
+A1      = 0               A2      = 0.99            AGS     = 0.1805967       
+LAGS    = -5.257816E-08   WAGS    = 5.250056E-07    PAGS    = -2.084307E-12   
+B0      = 0               B1      = 0               VOFF    = -0.1028186      
+LVOFF   = -7.862375E-11   WVOFF   = 5.637835E-07    PVOFF   = 1.572632E-14    
+NFACTOR = 1.279284        LNFACTOR= -1.003055E-07   WNFACTOR= 1.409367E-06    
+PNFACTOR= -1.060879E-13   CIT     = -0.0003548934   LCIT    = 1.606955E-10    
+WCIT    = 5.594149E-09    PCIT    = -2.051892E-15   CDSC    = 0               
+CDSCB   = 0               CDSCD   = 0               ETA0    = -0.0004200171   
+LETA0   = 9.305167E-10    WETA0   = 1.575515E-10    PETA0   = 1.173948E-15    
+ETAB    = 0.0006617482    LETAB   = -6.692105E-10   WETAB   = 1.417605E-08    
+PETAB   = -7.357516E-15   DSUB    = 0               PCLM    = -0.09697377     
+LPCLM   = 1.730695E-07    WPCLM   = 1.778578E-05    PPCLM   = -3.114881E-12   
+PDIBLC1 = 1E-05           PDIBLC2 = -0.0001322146   LPDIBLC2= 2.890686E-09    
+WPDIBLC2= 5.926362E-09    PPDIBLC2= 6.313672E-15    PDIBLCB = 0.09958895      
+LPDIBLCB= 1.909405E-08    WPDIBLCB= 5.088415E-06    PPDIBLCB= -1.741046E-12   
+DROUT   = 0               PSCBE1  = 4.648172E+08    LPSCBE1 = -5.401008       
+WPSCBE1 = -2351.523       PPSCBE1 = 0.001030809     PSCBE2  = 1.387722E-05    
+LPSCBE2 = -2.069607E-12   WPSCBE2 = -2.022001E-10   PPSCBE2 = 5.580156E-17    
+PVAG    = 0               DELTA   = 0.01            ALPHA0  = 2.5E-06 
+BETA0   = 20.7            KT1     = -0.1420202      LKT1    = -9.661557E-08   
+WKT1    = -4.90975E-06    PKT1    = 2.755161E-12    KT2     = -0.01610689     
+LKT2    = -4.534451E-09   WKT2    = -2.62401E-07    PKT2    = 1.75824E-13     
+AT      = 4458.583        LAT     = 0.004869536     WAT     = -0.131913       
+PAT     = -3.509204E-08   UTE     = -1.801945       LUTE    = 8.437233E-08    
+WUTE    = -1.71153E-05    PUTE    = 8.21413E-13     UA1     = -6.043561E-10   
+LUA1    = 6.664246E-16    WUA1    = -3.377768E-14   PUA1    = -6.447314E-21   
+UB1     = 1.551122E-18    LUB1    = -6.751311E-25   WUB1    = -1.52417E-23    
+PUB1    = 8.77149E-30     UC1     = 2.179031E-10    LUC1    = -8.721581E-17   
+WUC1    = -4.28415E-15    PUC1    = 1.684478E-21    KT1L    = 0               
+PRT     = 4.542504        LPRT    = -6.95965E-06    WPRT    = -7.738082E-05   
[...]
+UB      = -3.771157E-19  LUB      = 9.283744E-25   WUB      = 2.446966E-23   
+PUB     = -1.498899E-29  UC       = -1.931642E-10  LUC      = 7.69795E-17    
+WUC     = 2.633014E-15   PUC      = -1.48812E-21   RDSW     = 1200           
+PRWB    = 0              PRWG     = 0              WR       = 1              
+U0      = 0.02853129     LU0      = -5.644418E-09  WU0      = -2.079686E-07  
+PU0     = 8.606428E-14   A0       = 1.053803       LA0      = 8.766222E-08   
+WA0     = -1.356203E-05  PA0      = 7.156612E-12   KETA     = 0.01138427     
+LKETA   = -4.040701E-09  WKETA    = -3.991359E-08  PKETA    = 7.136286E-15   
+A1      = 0              A2       = 0.5625945      LA2      = -1.243035E-07  
+WA2     = -1.552626E-06  PA2      = 1.186983E-12   AGS      = -0.08883215    
+LAGS    = 5.262219E-08   WAGS     = 1.380112E-06   PAGS     = -1.055096E-12  
+B0      = 0              B1       = 0              VOFF     = -0.109096      
+LVOFF   = -2.429444E-08  WVOFF    = -3.377276E-07  PVOFF    = 2.581928E-13   
+NFACTOR = 0.8800734      LNFACTOR = 3.210339E-07   WNFACTOR = 1.77331E-05    
+PNFACTOR= -1.355696E-11  CIT      = -0.0007432703  LCIT     = 3.377738E-10   
+WCIT    = 7.590893E-09   PCIT     = -5.803238E-15  CDSC     = 0              
+CDSCB   = 0              CDSCD    = 0              ETA0     = -0.004140343   
+LETA0   = 5.36801E-09    WETA0    = 4.017752E-08   PETA0    = -3.396618E-14  
+ETAB    = -0.0003047791  LETAB    = -1.224885E-10  WETAB    = 7.285613E-09   
+PETAB   = -5.569851E-15  DSUB     = 0              PCLM     = 4.095334       
+LPCLM   = -7.976283E-07  WPCLM    = -6.084229E-06  PPCLM    = 4.651393E-12   
+PDIBLC1 = 1E-05          PDIBLC2  = 5E-05          PDIBLCB  = 0.40135        
+LPDIBLCB= -1.023259E-07  WPDIBLCB = -1.466066E-06  PPDIBLCB = 1.120808E-12   
+DROUT   = 0              PSCBE1   = 5.27386E+08    LPSCBE1  = -7.55169       
+WPSCBE1 = 3085.168       PPSCBE1  = -0.002358611   PSCBE2   = 3.245906E-06   
+LPSCBE2 = -1.803504E-13  WPSCBE2  = 6.996353E-11   PPSCBE2  = -5.348713E-17  
+PVAG    = 0              DELTA    = 0.01           ALPHA0   = 1.5E-06        
+BETA0   = 38.1           KT1      = -0.5319197     LKT1     = -3.234629E-08  
+WKT1    = 1.682085E-06   PKT1     = -8.225407E-13  KT2      = -0.00190553    
+LKT2    = -9.394682E-09  WKT2     = -4.266947E-07  PKT2     = 1.081473E-13   
+AT      = 2063.814       LAT      = -4.878597E-05  WAT      = -0.01276604    
+PAT     = 9.759638E-09   UTE      = -0.602981      LUTE     = -6.85585E-07   
+WUTE    = -6.156065E-06  PUTE     = 3.414984E-12   UA1      = 3.67648E-09    
+LUA1    = -3.498719E-15  WUA1     = -2.34619E-14   PUA1     = 1.793663E-20   
+UB1     = -6.626459E-18  LUB1     = 3.040003E-24   WUB1     = 5.427292E-23   
+PUB1    = -4.149165E-29  UC1      = -1.160362E-10  LUC1     = 5.841346E-17   
+WUC1    = -3.330525E-16  PUC1     = -5.588843E-22  KT1L     = 0              
+PRT     = 0              JS       = 0.0001         JSW      = 2.42572E-11  
+PB      = 1.236234       MJ       = 0.6625574      MJSW     = 0.4851755
+PBSW    = 1.236234       PBSWG    = 1.236234       CJ       = cjp5
+CJSW    = cjswp5         CJSWG    = cjswgp5        CGDO     = cgop5
+CGSO    = cgop5          CTA      = 1.377674E-3    CTP      = 4.878735E-4
+PTA     = 2.163191E-3    PTP      = 2.163191E-3    MJSWG    = 0.4851755 
+XTI     = 3              N        = 1              CAPMOD   = 0
+NQSMOD  = 0              XPART    = 1              CF       = 0 
+NLEV    = 3              AF       = 1.1            KF       = 5.05E-24
+CALCACM = 1              SFVTFLAG = 0              VFBFLAG  = 1            )
*
***************************************************************
*                                                             *
*                                                             *
*                MODEL OF 5V NMOS WITH ESD IMPLANT            *
*                                                             *
*                                                             *
*                                                             *
***************************************************************
*
*
*  NOTE : The parameter HDIF listed in model card is based on 
*         the layout of testkey PCM38, users must change this 
*         value according to their layout.
*      
*
*
.MODEL esd5v NMOS (                                LEVEL   = 49                 
+CALCACM = 1              SFVTFLAG = 0             VFBFLAG = 1  
+VERSION = 3.1            LMIN    = 8E-7           LMAX    = 2E-6               
+WMIN    = 2E-5           WMAX    = 2E-4           XL      = '0.04E-6+dxl5'   
+XW      ='0.15E-6+dxw5'  TNOM    = 25             TOX     = toxe5            
+XJ      = 1.5E-7         NCH     = 9.93E16        LLN     = 1                  
+LWN     = 1              WLN     = 1              WWN     = 1                  
+LINT    = 9E-8           WINT    = 1.59E-7        MOBMOD  = 1                  
+BINUNIT = 2              DWG     = 0              DWB     = 0                  
+VTH0 = 'dvte5+0.8159639' LVTH0   = 6.293703E-8    WVTH0   = -1.608717E-7       
+PVTH0   = -4.8126E-14    K1      = 0.6559668      LK1     = 1.953296E-7        
+WK1     = 6.694726E-6    PK1     = -4.50552E-12   K2      = 0.1558551          
+LK2     = -7.9795E-8     WK2     = -2.496228E-6   PK2     = 1.710858E-12       
+K3      = 0              DVT0    = 0              DVT1    = 0                  
+DVT2    = 0              DVT0W   = 0              DVT1W   = 0                  
+DVT2W   = 0              NLX     = 0              W0      = 0                  
+K3B     = 0              VSAT    = 9.298953E4     LVSAT   = 6.570042E-4        
+WVSAT   = 0.2017716      PVSAT   = -1.311919E-7   UA      = 5.820969E-11       
+LUA     = -3.43084E-17   WUA     = 1.003585E-15   PUA     = 5.562979E-22       
+UB      = 1.636926E-18   LUB     = 1.283712E-24   WUB     = 8.369159E-24       
+PUB     = -3.11540E-29   UC      = 4.338862E-11   LUC     = 1.092981E-16       
+WUC     = 3.272107E-16   PUC     = -1.63804E-21   RDSW    = 600                
+PRWB    = 0              PRWG    = 2.209416E-4    LPRWG   = -4.456998E-9       
+WPRWG   = -2.261326E-8   PPRWG   = 8.921047E-14   WR      = 1                  
+U0      = 0.0469517      LU0     = 4.654215E-9    WU0     = 4.699849E-8        
+PU0     = -8.43616E-14   A0      = 0.9105611      LA0     = -4.040427E-7       
+WA0     = -1.767308E-6   PA0     = 6.165831E-12   KETA    = 0.0106754          
+LKETA   = -2.127105E-8   WKETA   = -4.047217E-8   PKETA   = 3.60139E-13        
+A1      = 0              A2      = 0.6802866      LA2     = -1.404497E-8   
+WA2     = 7.434166E-6    PA2     = -3.66631E-12   AGS     = -2.982669E-3       
+LAGS    = 2.518517E-9    WAGS    = 7.952672E-7    PAGS    = -5.02902E-13       
+B0      = 0              B1      = 0              VOFF    = -0.1512265         
+LVOFF   = 4.879334E-8    WVOFF   = 2.321717E-7    PVOFF   = -3.96756E-13       
+NFACTOR = 1.3083477      LNFACTOR= 1.40429E-7     WNFACTOR= -9.527986E-6       
+PNFACTOR= 4.588299E-12   CIT     = 0              CDSC    = 0                  
+CDSCB   = 0              CDSCD   = 0              ETA0    = 1.014412E-4        
+LETA0   = 2.766839E-10   WETA0   = 2.919315E-9    PETA0   = -5.40073E-15       
+ETAB    = 3.301877E-4    LETAB   = -6.10847E-10   WETAB   = -1.005096E-9       
+PETAB   = 1.859427E-15   DSUB    = 0              PCLM    = -0.0489277         
+LPCLM   = 1.427501E-6    WPCLM   = 4.019428E-6    PPCLM   = 2.650954E-12       
+PDIBLC1 = 1E-20          PDIBLC2 = 6.009903E-3    LPDIBLC2= -1.868321E-9       
+WPDIBLC2= -1.985672E-8   PPDIBLC2= 3.673493E-14   PDIBLCB = 0.0810399          
+LPDIBLCB= -1.528295E-7   WPDIBLCB= -1.590742E-6   PPDIBLCB= 2.991128E-12       
+DROUT   = 0              PSCBE1  = 3.482836E8     LPSCBE1 = 75.22749           
+WPSCBE1 = -144.78651     PPSCBE1 = 5.094653E-5    PSCBE2  = 2.575667E-5        
+LPSCBE2 = 9.709635E-12   WPSCBE2 = -1.43485E-10   PPSCBE2 = 4.190929E-17       
+PVAG    = 2.5531826      LPVAG   = -1.006329E-6   WPVAG   = -3.303764E-5       
+PPVAG   = 2.077205E-11   DELTA   = 5.085994E-3    LDELTA  = 9.697086E-9        
+WDELTA  = -1.008858E-7   PDELTA  = 6.559593E-14   ALPHA0  = 0                  
+BETA0   = 30             KT1     = -0.43231       LKT1    = -4.610828E-8       
+WKT1    = 5.964351E-7    PKT1    = 1.199277E-12   KT2     = -0.0815339         
+LKT2    = 1.369035E-8    WKT2    = 8.905433E-7    PKT2    = -2.31305E-13       
+AT      = 2.51473E4      LAT     = 0.0113141      WAT     = -0.9968733         
+PAT     = 3.432854E-7    UTE     = -1.3714316     LUTE    = -1.901169E-7       
+WUTE    = -2.760377E-6   PUTE    = 4.168139E-12   UA1     = 1.792468E-9        
+LUA1    = 5.269493E-16   WUA1    = 8.13958E-15    PUA1    = -2.51451E-20       
+UB1     = -1.35202E-18   LUB1    = -2.77189E-24   WUB1    = -5.79771E-23       
+PUB1    = 1.145451E-28   UC1     = 4.821126E-11   LUC1    = -8.75312E-17       
+WUC1    = -3.69397E-15   PUC1    = 5.038823E-21   KT1L    = 0                  
+PRT     = 0              CJ      = cje5           MJ      = 0.4886561          
+PB      = 0.8351256      CJSW    = cjswe5         MJSW    = 0.3702774          
+PBSW    = 0.8351256      CJSWG   = cjswge5        MJSWG   = 0.3702774          
+PBSWG   = 0.8351256      HDIF    = hdife5         LDIF    = 1.2E-7             
+ACM     = 12             RS      = 0              RD      = 0                  
+RSH     = 35.9           CTA     = 9.368412E-4    CTP     = 5.837846E-4        
+PTA     = 1.143614E-3    PTP     = 1.143614E-3    N       = 1                  
+XTI     = 3              CGDO    = cgoe5          CGSO    = cgoe5           
+CAPMOD  = 0              NQSMOD  = 0              XPART   = 1                  
+CF      = 0              TLEV    = 1              TLEVC   = 1                  
+JS      = 1.050984E-6    JSW     = 4.265319E-11   CGBO    = 1E-13  
+RSC     = 0              RDC     = 0              )   
.ENDL MOS_5V
******************************************************************************
*
.LIB BIP
*******************************************************************
*          MODEL OF P+/NW/PSUB PNP 10X10 VERTICAL BIPOLAR         *
*******************************************************************
.MODEL pnp10 PNP (                               LEVEL  = 1                  
+ BF     = 6.35            NF     = 1.01            ISE    = 2.95E-17           
+ NE     = 1.9             IS     = 2.95E-17        RB     = 71                 
+ IRB    = 9.5E-4          RBM    = 0.1             RE     = 2.35               
+ IKF    = 1.95E-3         NKF    = 0.549           VAF    = 300                
+ BR     = 0.01116         NR     = 1               ISC    = 2.95E-17           
+ NC     = 1.1             RC     = 21.08           IKR    = 0.087818           
+ VAR    = 7.8             TBF1   = 6.7E-3          TBF2   = 8E-6               
+ TNE1   = 9E-5            TNF1   = 9.5E-5          TRB1   = 3E-5               
+ TIRB1  = 9E-4            TRM1   = 9.44068E-6      TRE1   = 5E-4               
+ TIKF1  = -3.5E-3         TVAF1  = -9E-4           TBR1   = -7E-4              
+ TBR2   = 9.5E-6          TNR1   = 9E-5            TNC1   = 1.50731E-3         
+ XTB    = 0               XTI    = 3               TRC1   = 0                  
+ TIKR1  = -3.9E-3         EG     = 1.18            CJE    = 1.55101E-13        
+ VJE    = 1.23623         MJE    = 0.662557        FC     = 0.5                
+ CJC    = 3.131405E-14    VJC    = 0.552774        MJC    = 0.32993            
+ TLEVC  = 1               CTE    = 4.87874E-4      CTC    = 2.63294E-3         
+ TVJE   = 2.16319E-3      TVJC   = 2.955E-3        TREF   = 25                 
+ SUBS   = 1               TLEV   = 0               )                           
******************************************************************
*           MODEL OF P+/NW/PSUB PNP 5X5 VERTICAL BIPOLAR         *
******************************************************************
.MODEL pnp5 PNP (                                LEVEL  = 1                  
+ BF     = 7.55            NF     = 1.034           ISE    = 1.55E-17           
+ NE     = 1.45            IS     = 1.55E-17        RB     = 140                
+ IRB    = 1.95E-3         RBM    = 0.1             RE     = 0.05               
+ IKF    = 7.755E-4        NKF    = 0.515           VAF    = 290                
+ BR     = 4.15E-3         NR     = 1.0355          ISC    = 1.55E-17           
+ NC     = 1.4             RC     = 21.08           IKR    = 1E-4               
+ VAR    = 6.8             TBF1   = 6.75E-3         TBF2   = 1E-5               
+ TNE1   = 9E-6            TNF1   = 2.46E-4         TRB1   = 9E-5               
+ TIRB1  = 9E-5            TRM1   = 9.44068E-6      TRE1   = -1E-4              
+ TIKF1  = -3.15E-3        TVAF1  = 5.3E-5          TBR1   = -4E-4              
+ TBR2   = 8E-6            TNR1   = 1.961E-4        TNC1   = -4.507315E-4       
+ XTB    = 0               XTI    = 3               TRC1   = 1E-3               
+ TIKR1  = -1E-5           EG     = 1.18            CJE    = 4.292525E-14       
+ VJE    = 1.23623         MJE    = 0.662557        FC     = 0.5                
+ CJC    = 1.31504E-14     VJC    = 0.552774        MJC    = 0.32993            
+ TLEVC  = 1               CTE    = 4.87874E-4      CTC    = 2.63294E-3         
+ TVJE   = 2.16319E-3      TVJC   = 2.955E-3        TREF   = 25                 
+ SUBS   = 1               TLEV   = 0               )                           
*                                                                               
.ENDL BIP 
*****************************************************************************
.LIB DIO
*********************************************************
*               MODEL OF N+/PW DIODE                    *
*********************************************************
.MODEL NDIO D (                                     LEVEL  = 3
+ IS     = 2.82E-6         RS     = 2.03E-7         N      = 1.25               
+ BV     = 8.3             IBV    = 0.03            IK     = 1E20               
+ IKR    = 1E10            JSW    = 1.36E-11        AREA   = 7.5E-8             
+ PJ     = 1.1E-3          CJ     = 9.50957E-4      PB     = 0.6944804          
+ MJ     = 0.3297355       CJSW   = 2.84489E-10     PHP    = 0.6944804          
+ MJSW   = 0.1303453       TLEV   = 1               EG     = 1.17               
+ XTI    = 3               TCV    = -3E-4           TRS    = 1.712E-3           
+ TLEVC  = 1               CTA    = 9.373218E-4     CTP    = 1.423257E-3        
+ TPB    = 1.485657E-3     TPHP   = 4.517676E-3     TREF   = 25                 
+ FC     = 0               FCS    = 0             )                                                    
*                                                                               
*********************************************************
*               MODEL OF P+/NW DIODE                    *
*********************************************************
.MODEL PDIO D (                                     LEVEL  = 3                  
+ IS     = 2.65E-6         RS     = 1.7E-7          N      = 1.23               
+ BV     = 9               IBV    = 0.03            IK     = 1E20               
+ IKR    = 1E10            JSW    = 1.05E-11        AREA   = 7.5E-8             
+ PJ     = 1.1E-3          CJ     = 1.38871E-3      PB     = 1.0864354          
+ MJ     = 0.6008857       CJSW   = 3.86159E-10     PHP    = 1.0864354          
+ MJSW   = 0.4471985       TLEV   = 1               EG     = 1.17               
+ XTI    = 3               TCV    = -1.01E-3        TRS    = 1E-3               
+ TLEVC  = 1               CTA    = 9.175825E-4     CTP    = 1.162482E-3        
+ TPB    = 1.249266E-3     TPHP   = 3.6054E-4       TREF   = 25                 
+ FC     = 0               FCS    = 0             )                                                    
*********************************************************
*               MODEL OF NW/PW DIODE                    *
*********************************************************
.MODEL NW_DIO D (                                   LEVEL  = 3                  
+ IS     = 1.2E-5          RS     = 1.8E-7          N      = 1.35               
+ BV     = 22              IBV    = 0.03            IK     = 1E20               
+ IKR    = 1E10            JSW    = 2.554E-11       AREA   = 7.6104E-8          
+ PJ     = 1.108E-3        CJ     = 1.02413E-4      PB     = 0.5540683          
+ MJ     = 0.3574083       CJSW   = 4.84677E-10     PHP    = 0.5540683          
+ MJSW   = 0.2837341       TLEV   = 1               EG     = 1.17               
+ XTI    = 3               TCV    = 8E-5            TRS    = 1.12E-3            
+ TLEVC  = 1               CTA    = 3.029206E-3     CTP    = 1.740045E-3        
+ TPB    = 3.002617E-3     TPHP   = 2.419203E-3     TREF   = 25                 
+ FC     = 0               FCS    = 0           )                                                    
*                                                                               
.ENDL DIO                                                                       
*
.lib RES
**************************************************************************  
.subckt rnod n1 n2 l=length w=width
.param rsh=80 dw=-0.059u ptc1=1.51e-3 ptc2=0 pvc1=9.78e-4 pvc2=-4.01e-5 pt='temper'
.param tfac='1.0+ptc1*(pt-25.0)+ptc2*(pt-25.0)*(pt-25.0)'
r1 n1 n2 'rsh*l/(w-dw)*(1+pvc1*abs(v(n2,n1))+pvc2*v(n2,n1)*v(n2,n1))*tfac'
.ends rnod

.subckt rpod n1 n2 l=length w=width
.param rsh=150 dw=-0.094u ptc1=1.40e-3 ptc2=0 pvc1=1.03e-3 pvc2=-5.76e-4 pt='temper'
.param tfac='1.0+ptc1*(pt-25.0)+ptc2*(pt-25.0)*(pt-25.0)'
r1 n1 n2 'rsh*l/(w-dw)*(1+pvc1*abs(v(n2,n1))+pvc2*v(n2,n1)*v(n2,n1))*tfac'
.ends rpod

.subckt rnwod n1 n2 l=length w=width
.param rsh=1050 dw=1.418u ptc1=5.10e-3 ptc2=1.29e-5 pvc1=1.498e-2 pvc2=-4.33e-4 pt='temper'
.param tfac='1.0+ptc1*(pt-25.0)+ptc2*(pt-25.0)*(pt-25.0)'
r1 n1 n2 'rsh*l/(w-dw)*(1+pvc1*abs(v(n2,n1))+pvc2*v(n2,n1)*v(n2,n1))*tfac'
.ends rnwod

.subckt rpo1 n1 n2 l=length w=width
.param rsh=8 dw=0u ptc1=8.67e-4 ptc2=0 pvc1=3.22e-4 pvc2=-3.01e-5 pt='temper'
.param tfac='1.0+ptc1*(pt-25.0)+ptc2*(pt-25.0)*(pt-25.0)'
r1 n1 n2 'rsh*l/(w-dw)*(1+pvc1*abs(v(n2,n1))+pvc2*v(n2,n1)*v(n2,n1))*tfac'
.ends rpo1

.subckt rpo2 n1 n2 l=length w=width
.param rsh=50 dw=0u ptc1=1.07e-3 ptc2=0 pvc1=-6.14e-6 pvc2=2.33e-4 pt='temper'
.param tfac='1.0+ptc1*(pt-25.0)+ptc2*(pt-25.0)*(pt-25.0)'
r1 n1 n2 'rsh*l/(w-dw)*(1+pvc1*abs(v(n2,n1))+pvc2*v(n2,n1)*v(n2,n1))*tfac'
.ends rpo2

.subckt rm1 n1 n2 l=length w=width
.param rsh=0.083 dw=-0.02u ptc1=3.27e-3 ptc2=0 pvc1=0 pvc2=0 pt='temper'
.param tfac='1.0+ptc1*(pt-25.0)+ptc2*(pt-25.0)*(pt-25.0)'
r1 n1 n2 'rsh*l/(w-dw)*(1+pvc1*abs(v(n2,n1))+pvc2*v(n2,n1)*v(n2,n1))*tfac'
.ends rm1

.subckt rm2 n1 n2 l=length w=width
.param rsh=0.08 dw=-0.02u ptc1=3.29e-3 ptc2=0 pvc1=0 pvc2=0 pt='temper'
.param tfac='1.0+ptc1*(pt-25.0)+ptc2*(pt-25.0)*(pt-25.0)'
r1 n1 n2 'rsh*l/(w-dw)*(1+pvc1*abs(v(n2,n1))+pvc2*v(n2,n1)*v(n2,n1))*tfac'
.ends rm2

.subckt rm3 n1 n2 l=length w=width
.param rsh=0.08 dw=-0.02u ptc1=3.34e-3 ptc2=0 pvc1=0 pvc2=0 pt='temper'
.param tfac='1.0+ptc1*(pt-25.0)+ptc2*(pt-25.0)*(pt-25.0)'
r1 n1 n2 'rsh*l/(w-dw)*(1+pvc1*abs(v(n2,n1))+pvc2*v(n2,n1)*v(n2,n1))*tfac'
.ends rm3

.subckt rm4 n1 n2 l=length w=width
.param rsh=0.051 dw=-0.02u ptc1=3.18e-3 ptc2=0 pvc1=0 pvc2=0 pt='temper'
.param tfac='1.0+ptc1*(pt-25.0)+ptc2*(pt-25.0)*(pt-25.0)'
r1 n1 n2 'rsh*l/(w-dw)*(1+pvc1*abs(v(n2,n1))+pvc2*v(n2,n1)*v(n2,n1))*tfac'
.ends rm4

.endl RES 
